Program Version,EnergyPlus, Version 8.4.0-09f5359d8a, YMD=2022.03.20 22:02
! <Version>, Version ID
 Version, 8.4
! <Timesteps per Hour>, #TimeSteps, Minutes per TimeStep {minutes}
 Timesteps per Hour, 60,  1
! <System Convergence Limits>, Minimum System TimeStep {minutes}, Max HVAC Iterations, Minimum Plant Iterations, Maximum Plant Iterations
 System Convergence Limits, 1, 25, 2, 8
! <Simulation Control>, Do Zone Sizing, Do System Sizing, Do Plant Sizing, Do Design Days, Do Weather Simulation, Do HVAC Sizing Simulation
 Simulation Control, Yes, Yes, No, No, Yes, No
! <Output Reporting Tolerances>, Tolerance for Time Heating Setpoint Not Met, Tolerance for Zone Cooling Setpoint Not Met Time
 Output Reporting Tolerances, 0.200, 0.200, 
! <Site:GroundTemperature:BuildingSurface>, Months From Jan to Dec {C}
 Site:GroundTemperature:BuildingSurface,  18.00,  18.00,  18.00,  18.00,  18.00,  18.00,  18.00,  18.00,  18.00,  18.00,  18.00,  18.00
! <Site:GroundTemperature:FCfactorMethod>, Months From Jan to Dec {C}
 Site:GroundTemperature:FCfactorMethod,   1.79,   3.73,   7.50,  11.07,  17.83,  21.38,  22.36,  20.56,  16.39,  11.20,   6.09,   2.71
! <Site:GroundTemperature:Shallow>, Months From Jan to Dec {C}
 Site:GroundTemperature:Shallow,  13.00,  13.00,  13.00,  13.00,  13.00,  13.00,  13.00,  13.00,  13.00,  13.00,  13.00,  13.00
! <Site:GroundTemperature:Deep>, Months From Jan to Dec {C}
 Site:GroundTemperature:Deep,  16.00,  16.00,  16.00,  16.00,  16.00,  16.00,  16.00,  16.00,  16.00,  16.00,  16.00,  16.00
! <Site:GroundReflectance>, Months From Jan to Dec {dimensionless}
 Site:GroundReflectance,  0.20,  0.20,  0.20,  0.20,  0.20,  0.20,  0.20,  0.20,  0.20,  0.20,  0.20,  0.20
! <Site:GroundReflectance:SnowModifier>, Normal, Daylighting {dimensionless}
 Site:GroundReflectance:SnowModifier,   1.000,   1.000
! <Site:GroundReflectance:Snow>, Months From Jan to Dec {dimensionless}
 Site:GroundReflectance:Snow,  0.20,  0.20,  0.20,  0.20,  0.20,  0.20,  0.20,  0.20,  0.20,  0.20,  0.20,  0.20
! <Site:GroundReflectance:Snow:Daylighting>, Months From Jan to Dec {dimensionless}
 Site:GroundReflectance:Snow:Daylighting,  0.20,  0.20,  0.20,  0.20,  0.20,  0.20,  0.20,  0.20,  0.20,  0.20,  0.20,  0.20
! <Environment:Weather Station>,Wind Sensor Height Above Ground {m},Wind Speed Profile Exponent {},Wind Speed Profile Boundary Layer Thickness {m},Air Temperature Sensor Height Above Ground {m},Wind Speed Modifier Coefficient [Internal],Temperature Modifier Coefficient [Internal]
Environment:Weather Station,10.000,0.140,270.000,1.500,1.586,9.750E-003
! <Site:Location>, Location Name, Latitude {N+/S- Deg}, Longitude {E+/W- Deg},  Time Zone Number {GMT+/-}, Elevation {m},  Standard Pressure at Elevation {Pa}, Standard RhoAir at Elevation
Site:Location,Pasco WA USA TMY3 WMO#=727845,46.27,-119.12,-8.00,136.00,99702,1.1850
! <Building Information>, Building Name,North Axis {deg},Terrain,  Loads Convergence Tolerance Value,Temperature Convergence Tolerance Value,  Solar Distribution,Maximum Number of Warmup Days,Minimum Number of Warmup Days
 Building Information,Office Small AEDG-50,0.000,Suburbs,0.50000,0.40000,FullInteriorAndExterior,25,6
! <Inside Convection Algorithm>, Algorithm {Simple | TARP | CeilingDiffuser | AdaptiveConvectionAlgorithm}
Inside Convection Algorithm,TARP
! <Outside Convection Algorithm>, Algorithm {SimpleCombined | TARP | MoWitt | DOE-2 | AdaptiveConvectionAlgorithm}
Outside Convection Algorithm,TARP
! <Sky Radiance Distribution>, Value {Anisotropic}
Sky Radiance Distribution,Anisotropic
! <Zone Air Solution Algorithm>, Value {ThirdOrderBackwardDifference | AnalyticalSolution | EulerMethod}
 Zone Air Solution Algorithm, ThirdOrderBackwardDifference
! <Zone Air Carbon Dioxide Balance Simulation>, Simulation {Yes/No}, Carbon Dioxide Concentration
 Zone Air Carbon Dioxide Balance Simulation, No,N/A
! <Zone Air Generic Contaminant Balance Simulation>, Simulation {Yes/No}, Generic Contaminant Concentration
 Zone Air Generic Contaminant Balance Simulation, No,N/A
! <Zone Air Mass Flow Balance Simulation>, Enforce Mass Balance, Adjust Zone Mixing, Adjust Zone Infiltration {AddInfiltration | AdjustInfiltration | None}, Infiltration Zones {MixingSourceZonesOnly | AllZones}
 Zone Air Mass Flow Balance Simulation, No,N/A,N/A,N/A
! <Environment:Site Atmospheric Variation>,Wind Speed Profile Exponent {},Wind Speed Profile Boundary Layer Thickness {m},Air Temperature Gradient Coefficient {K/m}
Environment:Site Atmospheric Variation,0.220,370.000,6.500000E-003
! <SurfaceGeometry>,Starting Corner,Vertex Input Direction,Coordinate System,Daylight Reference Point Coordinate System,Rectangular (Simple) Surface Coordinate System
 Surface Geometry,UpperLeftCorner,Counterclockwise,WorldCoordinateSystem,RelativeCoordinateSystem,RelativeToZoneOrigin
! <Surface Heat Transfer Algorithm>, Value {CTF - ConductionTransferFunction | EMPD - MoisturePenetrationDepthConductionTransferFunction | CondFD - ConductionFiniteDifference | HAMT - CombinedHeatAndMoistureFiniteElement} - Description,Inside Surface Max Temperature Limit{C}, Surface Convection Coefficient Lower Limit {W/m2-K}, Surface Convection Coefficient Upper Limit {W/m2-K}
Surface Heat Transfer Algorithm, CTF - ConductionTransferFunction,200,0.10,1000.0
! <Shading Summary>, Number of Fixed Detached Shades, Number of Building Detached Shades, Number of Attached Shades
 Shading Summary,0,0,0
! <Zone Summary>, Number of Zones, Number of Zone Surfaces, Number of SubSurfaces
 Zone Summary,20,198,68
! <Zone Information>,Zone Name,North Axis {deg},Origin X-Coordinate {m},Origin Y-Coordinate {m},Origin Z-Coordinate {m},Centroid X-Coordinate {m},Centroid Y-Coordinate {m},Centroid Z-Coordinate {m},Type,Zone Multiplier,Zone List Multiplier,Minimum X {m},Maximum X {m},Minimum Y {m},Maximum Y {m},Minimum Z {m},Maximum Z {m},Ceiling Height {m},Volume {m3},Zone Inside Convection Algorithm {Simple-Detailed-CeilingDiffuser-TrombeWall},Zone Outside Convection Algorithm {Simple-Detailed-Tarp-MoWitt-DOE-2-BLAST}, Floor Area {m2},Exterior Gross Wall Area {m2},Exterior Net Wall Area {m2},Exterior Window Area {m2}, Number of Surfaces, Number of SubSurfaces, Number of Shading SubSurfaces,  Part of Total Building Area
 Zone Information, SOUTH PERIM SPC GS1,0.0,0.00,0.00,0.00,15.24,1.69,1.37,1,1,1,0.00,30.48,0.00,3.66,0.00,2.74,2.74,269.08,TARP,TARP,98.10,83.60,58.71,22.30,6,9,0,Yes
 Zone Information, EAST PERIM SPC GE2,0.0,0.00,0.00,0.00,28.79,15.24,1.37,1,1,1,26.82,30.48,0.00,30.48,0.00,2.74,2.74,269.08,TARP,TARP,98.10,83.60,58.71,22.30,6,9,0,Yes
 Zone Information, NORTH PERIM SPC GN3,0.0,0.00,0.00,0.00,15.24,28.79,1.37,1,1,1,0.00,30.48,26.82,30.48,0.00,2.74,2.74,269.08,TARP,TARP,98.10,83.60,58.71,22.30,6,9,0,Yes
 Zone Information, WEST PERIM SPC GW4,0.0,0.00,0.00,0.00,1.69,15.24,1.37,1,1,1,0.00,3.66,0.00,30.48,0.00,2.74,2.74,269.08,TARP,TARP,98.10,83.60,58.71,22.30,6,9,0,Yes
 Zone Information, CORE SPC GC5,0.0,0.00,0.00,0.00,15.24,15.24,1.37,1,1,1,3.66,26.82,3.66,26.82,0.00,2.74,2.74,1471.81,TARP,TARP,536.56,0.00,0.00,0.00,6,0,0,Yes
 Zone Information, SOUTH PERIM PLNM GS6,0.0,0.00,0.00,0.00,15.24,1.72,3.20,1,1,1,0.00,30.48,0.00,3.66,2.74,3.66,0.91,89.69,TARP,TARP,98.10,27.87,27.87,0.00,6,0,0,No
 Zone Information, EAST PERIM PLNM GE7,0.0,0.00,0.00,0.00,28.76,15.24,3.20,1,1,1,26.82,30.48,0.00,30.48,2.74,3.66,0.91,89.69,TARP,TARP,98.10,27.87,27.87,0.00,6,0,0,No
 Zone Information, NORTH PERIM PLNM GN8,0.0,0.00,0.00,0.00,15.24,28.76,3.20,1,1,1,0.00,30.48,26.82,30.48,2.74,3.66,0.91,89.69,TARP,TARP,98.10,27.87,27.87,0.00,6,0,0,No
 Zone Information, WEST PERIM PLNM GW9,0.0,0.00,0.00,0.00,1.72,15.24,3.20,1,1,1,0.00,3.66,0.00,30.48,2.74,3.66,0.91,89.69,TARP,TARP,98.10,27.87,27.87,0.00,6,0,0,No
 Zone Information, CORE PLNM GC10,0.0,0.00,0.00,0.00,15.24,15.24,3.20,1,1,1,3.66,26.82,3.66,26.82,2.74,3.66,0.91,490.60,TARP,TARP,536.56,0.00,0.00,0.00,6,0,0,No
 Zone Information, SOUTH PERIM SPC TS11,0.0,0.00,0.00,0.00,15.24,1.69,5.03,1,1,1,0.00,30.48,0.00,3.66,3.66,6.40,2.74,269.08,TARP,TARP,98.10,83.60,61.31,22.30,6,8,0,Yes
 Zone Information, EAST PERIM SPC TE12,0.0,0.00,0.00,0.00,28.79,15.24,5.03,1,1,1,26.82,30.48,0.00,30.48,3.66,6.40,2.74,269.08,TARP,TARP,98.10,83.60,61.31,22.30,6,8,0,Yes
 Zone Information, NORTH PERIM SPC TN13,0.0,0.00,0.00,0.00,15.24,28.79,5.03,1,1,1,0.00,30.48,26.82,30.48,3.66,6.40,2.74,269.08,TARP,TARP,98.10,83.60,61.31,22.30,6,8,0,Yes
 Zone Information, WEST PERIM SPC TW14,0.0,0.00,0.00,0.00,1.69,15.24,5.03,1,1,1,0.00,3.66,0.00,30.48,3.66,6.40,2.74,269.08,TARP,TARP,98.10,83.60,61.31,22.30,6,8,0,Yes
 Zone Information, CORE SPC TC15,0.0,0.00,0.00,0.00,15.24,15.24,5.03,1,1,1,3.66,26.82,3.66,26.82,3.66,6.40,2.74,1471.81,TARP,TARP,536.56,0.00,0.00,0.00,6,0,0,Yes
 Zone Information, SOUTH PERIM PLNM TS16,0.0,0.00,0.00,0.00,15.24,1.72,6.86,1,1,1,0.00,30.48,0.00,3.66,6.40,7.31,0.91,89.69,TARP,TARP,98.10,27.87,27.87,0.00,6,0,0,No
 Zone Information, EAST PERIM PLNM TE17,0.0,0.00,0.00,0.00,28.76,15.24,6.86,1,1,1,26.82,30.48,0.00,30.48,6.40,7.31,0.91,89.69,TARP,TARP,98.10,27.87,27.87,0.00,6,0,0,No
 Zone Information, NORTH PERIM PLNM TN18,0.0,0.00,0.00,0.00,15.24,28.76,6.86,1,1,1,0.00,30.48,26.82,30.48,6.40,7.31,0.91,89.69,TARP,TARP,98.10,27.87,27.87,0.00,6,0,0,No
 Zone Information, WEST PERIM PLNM TW19,0.0,0.00,0.00,0.00,1.72,15.24,6.86,1,1,1,0.00,3.66,0.00,30.48,6.40,7.31,0.91,89.69,TARP,TARP,98.10,27.87,27.87,0.00,6,0,0,No
 Zone Information, CORE PLNM TC20,0.0,0.00,0.00,0.00,15.24,15.24,6.86,1,1,1,3.66,26.82,3.66,26.82,6.40,7.31,0.91,490.60,TARP,TARP,536.56,0.00,0.00,0.00,6,0,0,No
! <Zone Internal Gains/Equipment Information - Nominal>,Zone Name, Floor Area {m2},# Occupants,Area per Occupant {m2/person},Occupant per Area {person/m2},Interior Lighting {W/m2},Electric Load {W/m2},Gas Load {W/m2},Other Load {W/m2},Hot Water Eq {W/m2},Steam Equipment {W/m2},Sum Loads per Area {W/m2},Outdoor Controlled Baseboard Heat
 Zone Internal Gains, SOUTH PERIM SPC GS1,98.10,5.3,18.600,5.376E-002,14.662,8.074,0.000,0.000,0.000,0.000,22.735,No
 Zone Internal Gains, EAST PERIM SPC GE2,98.10,5.3,18.600,5.376E-002,14.662,8.074,0.000,0.000,0.000,0.000,22.735,No
 Zone Internal Gains, NORTH PERIM SPC GN3,98.10,5.3,18.600,5.376E-002,14.662,8.074,0.000,0.000,0.000,0.000,22.735,No
 Zone Internal Gains, WEST PERIM SPC GW4,98.10,5.3,18.600,5.376E-002,14.662,8.074,0.000,0.000,0.000,0.000,22.735,No
 Zone Internal Gains, CORE SPC GC5,536.56,28.8,18.600,5.376E-002,14.662,8.074,0.000,0.000,0.000,0.000,22.735,No
 Zone Internal Gains, SOUTH PERIM PLNM GS6,98.10,0.0,N/A,0.000,0.000,0.000,0.000,0.000,0.000,0.000,0.000,No
 Zone Internal Gains, EAST PERIM PLNM GE7,98.10,0.0,N/A,0.000,0.000,0.000,0.000,0.000,0.000,0.000,0.000,No
 Zone Internal Gains, NORTH PERIM PLNM GN8,98.10,0.0,N/A,0.000,0.000,0.000,0.000,0.000,0.000,0.000,0.000,No
 Zone Internal Gains, WEST PERIM PLNM GW9,98.10,0.0,N/A,0.000,0.000,0.000,0.000,0.000,0.000,0.000,0.000,No
 Zone Internal Gains, CORE PLNM GC10,536.56,0.0,N/A,0.000,0.000,0.000,0.000,0.000,0.000,0.000,0.000,No
 Zone Internal Gains, SOUTH PERIM SPC TS11,98.10,5.3,18.600,5.376E-002,14.662,8.074,0.000,0.000,0.000,0.000,22.735,No
 Zone Internal Gains, EAST PERIM SPC TE12,98.10,5.3,18.600,5.376E-002,14.662,8.074,0.000,0.000,0.000,0.000,22.735,No
 Zone Internal Gains, NORTH PERIM SPC TN13,98.10,5.3,18.600,5.376E-002,14.662,8.074,0.000,0.000,0.000,0.000,22.735,No
 Zone Internal Gains, WEST PERIM SPC TW14,98.10,5.3,18.600,5.376E-002,14.662,8.074,0.000,0.000,0.000,0.000,22.735,No
 Zone Internal Gains, CORE SPC TC15,536.56,28.8,18.600,5.376E-002,14.662,8.074,0.000,0.000,0.000,0.000,22.735,No
 Zone Internal Gains, SOUTH PERIM PLNM TS16,98.10,0.0,N/A,0.000,0.000,0.000,0.000,0.000,0.000,0.000,0.000,No
 Zone Internal Gains, EAST PERIM PLNM TE17,98.10,0.0,N/A,0.000,0.000,0.000,0.000,0.000,0.000,0.000,0.000,No
 Zone Internal Gains, NORTH PERIM PLNM TN18,98.10,0.0,N/A,0.000,0.000,0.000,0.000,0.000,0.000,0.000,0.000,No
 Zone Internal Gains, WEST PERIM PLNM TW19,98.10,0.0,N/A,0.000,0.000,0.000,0.000,0.000,0.000,0.000,0.000,No
 Zone Internal Gains, CORE PLNM TC20,536.56,0.0,N/A,0.000,0.000,0.000,0.000,0.000,0.000,0.000,0.000,No
! <People Internal Gains - Nominal>,Name,Schedule Name,Zone Name,Zone Floor Area {m2},# Zone Occupants,Number of People {},People/Floor Area {person/m2},Floor Area per person {m2/person},Fraction Radiant,Fraction Convected,Sensible Fraction Calculation,Activity level,ASHRAE 55 Warnings,Carbon Dioxide Generation Rate,Nominal Minimum Number of People,Nominal Maximum Number of People,MRT Calculation Type,Work Efficiency, Clothing Insulation Calculation Method,Clothing Insulation Calculation Method Schedule,Clothing,Air Velocity,Fanger Calculation,Pierce Calculation,KSU Calculation
 People Internal Gains, PEOPLE1,OCC 1/0,SOUTH PERIM SPC GS1,98.10,5.3,5.3,5.376E-002,18.600,0.300,0.700,AutoCalculate,ACTSCHED,No,3.8200E-008,0,5,Zone Averaged,WORK EFF SCH,Clothing Insulation Schedule,N/A,OFFICE CLOTHING SCHEDULE,AIR_VELO_SCH,Yes,No,No
 People Internal Gains, PEOPLE2,OCC 1/0,EAST PERIM SPC GE2,98.10,5.3,5.3,5.376E-002,18.600,0.300,0.700,AutoCalculate,ACTSCHED,No,3.8200E-008,0,5,Zone Averaged,WORK EFF SCH,Clothing Insulation Schedule,N/A,OFFICE CLOTHING SCHEDULE,AIR_VELO_SCH,Yes,No,No
 People Internal Gains, PEOPLE3,OCC 1/0,NORTH PERIM SPC GN3,98.10,5.3,5.3,5.376E-002,18.600,0.300,0.700,AutoCalculate,ACTSCHED,No,3.8200E-008,0,5,Zone Averaged,WORK EFF SCH,Clothing Insulation Schedule,N/A,OFFICE CLOTHING SCHEDULE,AIR_VELO_SCH,Yes,No,No
 People Internal Gains, PEOPLE4,OCC 1/0,WEST PERIM SPC GW4,98.10,5.3,5.3,5.376E-002,18.600,0.300,0.700,AutoCalculate,ACTSCHED,No,3.8200E-008,0,5,Zone Averaged,WORK EFF SCH,Clothing Insulation Schedule,N/A,OFFICE CLOTHING SCHEDULE,AIR_VELO_SCH,Yes,No,No
 People Internal Gains, PEOPLE5,OCC 1/0,CORE SPC GC5,536.56,28.8,28.8,5.376E-002,18.600,0.300,0.700,AutoCalculate,ACTSCHED,No,3.8200E-008,0,29,Zone Averaged,WORK EFF SCH,Clothing Insulation Schedule,N/A,OFFICE CLOTHING SCHEDULE,AIR_VELO_SCH,Yes,No,No
 People Internal Gains, PEOPLE6,OCC 1/0,SOUTH PERIM SPC TS11,98.10,5.3,5.3,5.376E-002,18.600,0.300,0.700,AutoCalculate,ACTSCHED,No,3.8200E-008,0,5,Zone Averaged,WORK EFF SCH,Clothing Insulation Schedule,N/A,OFFICE CLOTHING SCHEDULE,AIR_VELO_SCH,Yes,No,No
 People Internal Gains, PEOPLE7,OCC 1/0,EAST PERIM SPC TE12,98.10,5.3,5.3,5.376E-002,18.600,0.300,0.700,AutoCalculate,ACTSCHED,No,3.8200E-008,0,5,Zone Averaged,WORK EFF SCH,Clothing Insulation Schedule,N/A,OFFICE CLOTHING SCHEDULE,AIR_VELO_SCH,Yes,No,No
 People Internal Gains, PEOPLE8,OCC 1/0,NORTH PERIM SPC TN13,98.10,5.3,5.3,5.376E-002,18.600,0.300,0.700,AutoCalculate,ACTSCHED,No,3.8200E-008,0,5,Zone Averaged,WORK EFF SCH,Clothing Insulation Schedule,N/A,OFFICE CLOTHING SCHEDULE,AIR_VELO_SCH,Yes,No,No
 People Internal Gains, PEOPLE9,OCC 1/0,WEST PERIM SPC TW14,98.10,5.3,5.3,5.376E-002,18.600,0.300,0.700,AutoCalculate,ACTSCHED,No,3.8200E-008,0,5,Zone Averaged,WORK EFF SCH,Clothing Insulation Schedule,N/A,OFFICE CLOTHING SCHEDULE,AIR_VELO_SCH,Yes,No,No
 People Internal Gains, PEOPLE10,OCC 1/0,CORE SPC TC15,536.56,28.8,28.8,5.376E-002,18.600,0.300,0.700,AutoCalculate,ACTSCHED,No,3.8200E-008,0,29,Zone Averaged,WORK EFF SCH,Clothing Insulation Schedule,N/A,OFFICE CLOTHING SCHEDULE,AIR_VELO_SCH,Yes,No,No
! <Lights Internal Gains - Nominal>,Name,Schedule Name,Zone Name,Zone Floor Area {m2},# Zone Occupants,Lighting Level {W},Lights/Floor Area {W/m2},Lights per person {W/person},Fraction Return Air,Fraction Radiant,Fraction Short Wave,Fraction Convected,Fraction Replaceable,End-Use Category,Nominal Minimum Lighting Level {W},Nominal Maximum Lighting Level {W}
 Lights Internal Gains, LIGHTS1,LIGHTING1,SOUTH PERIM SPC GS1,98.10,5.3,1438.235,14.662,272.704,0.000,0.700,0.000,0.300,1.000,General,1294.412,1294.412
 Lights Internal Gains, LIGHTS2,LIGHTING2,EAST PERIM SPC GE2,98.10,5.3,1438.235,14.662,272.704,0.000,0.700,0.000,0.300,1.000,General,0.000,0.000
 Lights Internal Gains, LIGHTS3,LIGHTING3,NORTH PERIM SPC GN3,98.10,5.3,1438.235,14.662,272.704,0.000,0.700,0.000,0.300,1.000,General,1294.412,1294.412
 Lights Internal Gains, LIGHTS4,LIGHTING4,WEST PERIM SPC GW4,98.10,5.3,1438.235,14.662,272.704,0.000,0.700,0.000,0.300,1.000,General,1294.412,1294.412
 Lights Internal Gains, LIGHTS5,LIGHTING5,CORE SPC GC5,536.56,28.8,7866.710,14.662,272.704,0.000,0.700,0.000,0.300,1.000,General,7080.039,7080.039
 Lights Internal Gains, LIGHTS6,LIGHTING6,SOUTH PERIM SPC TS11,98.10,5.3,1438.235,14.662,272.704,0.000,0.700,0.000,0.300,1.000,General,1294.412,1294.412
 Lights Internal Gains, LIGHTS7,LIGHTING7,EAST PERIM SPC TE12,98.10,5.3,1438.235,14.662,272.704,0.000,0.700,0.000,0.300,1.000,General,1294.412,1294.412
 Lights Internal Gains, LIGHTS8,LIGHTING8,NORTH PERIM SPC TN13,98.10,5.3,1438.235,14.662,272.704,0.000,0.700,0.000,0.300,1.000,General,1294.412,1294.412
 Lights Internal Gains, LIGHTS9,LIGHTING9,WEST PERIM SPC TW14,98.10,5.3,1438.235,14.662,272.704,0.000,0.700,0.000,0.300,1.000,General,1294.412,1294.412
 Lights Internal Gains, LIGHTS10,LIGHTING10,CORE SPC TC15,536.56,28.8,7866.710,14.662,272.704,0.000,0.700,0.000,0.300,1.000,General,7080.039,7080.039
! <ElectricEquipment Internal Gains - Nominal>,Name,Schedule Name,Zone Name,Zone Floor Area {m2},# Zone Occupants,Equipment Level {W},Equipment/Floor Area {W/m2},Equipment per person {W/person},Fraction Latent,Fraction Radiant,Fraction Lost,Fraction Convected,End-Use SubCategory,Nominal Minimum Equipment Level {W},Nominal Maximum Equipment Level {W}
 ElectricEquipment Internal Gains, EQUIP1,EQP 1/0,SOUTH PERIM SPC GS1,98.10,5.3,792.003,8.074,150.172,0.000,0.250,0.000,0.750,General,0.000,792.003
 ElectricEquipment Internal Gains, EQUIP2,EQP 1/0,EAST PERIM SPC GE2,98.10,5.3,792.003,8.074,150.172,0.000,0.250,0.000,0.750,General,0.000,792.003
 ElectricEquipment Internal Gains, EQUIP3,EQP 1/0,NORTH PERIM SPC GN3,98.10,5.3,792.003,8.074,150.172,0.000,0.250,0.000,0.750,General,0.000,792.003
 ElectricEquipment Internal Gains, EQUIP4,EQP 1/0,WEST PERIM SPC GW4,98.10,5.3,792.003,8.074,150.172,0.000,0.250,0.000,0.750,General,0.000,792.003
 ElectricEquipment Internal Gains, EQUIP5,EQP 1/0,CORE SPC GC5,536.56,28.8,4332.016,8.074,150.172,0.000,0.250,0.000,0.750,General,0.000,4332.016
 ElectricEquipment Internal Gains, EQUIP6,EQP 1/0,SOUTH PERIM SPC TS11,98.10,5.3,792.003,8.074,150.172,0.000,0.250,0.000,0.750,General,0.000,792.003
 ElectricEquipment Internal Gains, EQUIP7,EQP 1/0,EAST PERIM SPC TE12,98.10,5.3,792.003,8.074,150.172,0.000,0.250,0.000,0.750,General,0.000,792.003
 ElectricEquipment Internal Gains, EQUIP8,EQP 1/0,NORTH PERIM SPC TN13,98.10,5.3,792.003,8.074,150.172,0.000,0.250,0.000,0.750,General,0.000,792.003
 ElectricEquipment Internal Gains, EQUIP9,EQP 1/0,WEST PERIM SPC TW14,98.10,5.3,792.003,8.074,150.172,0.000,0.250,0.000,0.750,General,0.000,792.003
 ElectricEquipment Internal Gains, EQUIP10,EQP 1/0,CORE SPC TC15,536.56,28.8,4332.016,8.074,150.172,0.000,0.250,0.000,0.750,General,0.000,4332.016
! <Construction CTF>,Construction Name,Index,#Layers,#CTFs,Time Step {hours},ThermalConductance {w/m2-K},OuterThermalAbsorptance,InnerThermalAbsorptance,OuterSolarAbsorptance,InnerSolarAbsorptance,Roughness
! <Material CTF Summary>,Material Name,Thickness {m},Conductivity {w/m-K},Density {kg/m3},Specific Heat {J/kg-K},ThermalResistance {m2-K/w}
! <Material:Air>,Material Name,ThermalResistance {m2-K/w}
! <CTF>,Time,Outside,Cross,Inside,Flux (except final one)
 Construction CTF,INTERIORFURNISHINGS,   1,   1,  17,   0.100,     0.8000    ,   0.900,   0.900,   0.700,   0.700,MediumSmooth
 Material CTF Summary,STD WOOD 6INCH,  0.1500,         0.120,    540.000,     1210.000,   1.250    
 CTF,  17,     -0.90079007E-12,      0.10053588E-19,     -0.90079705E-12,      0.36041705E-13
 CTF,  16,      0.12994501E-09,      0.14362381E-15,      0.12994500E-09,     -0.52870379E-11
 CTF,  15,     -0.10704352E-07,      0.35215962E-15,     -0.10704352E-07,      0.44428442E-09
 CTF,  14,      0.56022885E-06,      0.75971587E-14,      0.56022885E-06,     -0.23797974E-07
 CTF,  13,     -0.19623129E-04,      0.11875298E-11,     -0.19623129E-04,      0.85638647E-06
 CTF,  12,      0.47329417E-03,      0.84635786E-10,      0.47329417E-03,     -0.21312361E-04
 CTF,  11,     -0.79913137E-02,      0.28374579E-08,     -0.79913137E-02,      0.37305091E-03
 CTF,  10,      0.95413482E-01,      0.47432590E-07,      0.95413482E-01,     -0.46404581E-02
 CTF,   9,     -0.81085452    ,      0.40799225E-06,     -0.81085452    ,      0.41289246E-01
 CTF,   8,       4.9254726    ,      0.18261187E-05,       4.9254726    ,     -0.26380912    
 CTF,   7,      -21.427375    ,      0.42223363E-05,      -21.427375    ,       1.2120212    
 CTF,   6,       66.676295    ,      0.49043847E-05,       66.676295    ,      -3.9960028    
 CTF,   5,      -147.48837    ,      0.27066883E-05,      -147.48837    ,       9.3877258    
 CTF,   4,       228.64255    ,      0.64260075E-06,       228.64255    ,      -15.479788    
 CTF,   3,      -241.64982    ,      0.54857284E-07,      -241.64982    ,       17.414460    
 CTF,   2,       165.25879    ,      0.11609948E-08,       165.25879    ,      -12.676999    
 CTF,   1,      -65.742762    ,      0.86072332E-11,      -65.742762    ,       5.3653721    
 CTF,   0,       11.528221    ,     -0.10989922E-11,       11.528221    
 Construction CTF,AIR_WALL,   2,   1,   1,   0.017,      4.809    ,   0.900,   0.900,   0.700,   0.700,Rough
 Material CTF Summary,AIR_WALL_MATERIAL,  0.0000,         0.000,      0.000,        0.000,  0.2079    
 CTF,   1,       0.0000000    ,       0.0000000    ,      -0.0000000    ,      -0.0000000    
 CTF,   0,       4.8088691    ,       4.8088691    ,       4.8088691    
 Construction CTF,DROPCEILING,   3,   1,   5,   0.017,      4.488    ,   0.900,   0.900,   0.700,   0.700,MediumSmooth
 Material CTF Summary,AC02 ACOUSTIC CEILING,  0.0127,         0.057,    288.000,     1339.000,  0.2228    
 CTF,   5,     -0.43576264E-05,      0.32533453E-06,     -0.43576264E-05,      0.35441793E-07
 CTF,   4,      0.45178569E-02,      0.57997009E-03,      0.45178569E-02,     -0.48068764E-04
 CTF,   3,     -0.48570000    ,      0.54522555E-01,     -0.48570000    ,      0.77136304E-02
 CTF,   2,       7.1688400    ,      0.52847179    ,       7.1688400    ,     -0.17737175    
 CTF,   1,      -22.746003    ,      0.64259973    ,      -22.746003    ,      0.88271706    
 CTF,   0,       17.346410    ,      0.61886911E-01,       17.346410    
 Construction CTF,OPAQUEDOOR,   4,   1,   1,   0.017,      8.100    ,   0.900,   0.900,   0.700,   0.700,MediumRough
 Material CTF Summary,STD OPAQUE DOOR PANEL,  0.0000,         0.000,      0.000,        0.000,  0.1235    
 CTF,   1,       0.0000000    ,       0.0000000    ,      -0.0000000    ,      -0.0000000    
 CTF,   0,       8.1000000    ,       8.1000000    ,       8.1000000    
 Construction CTF,ATTICROOFDECK,   5,   2,   9,   0.017,      4.706    ,   0.900,   0.900,   0.700,   0.700,VeryRough
 Material CTF Summary,F12 ASPHALT SHINGLES,  0.0032,         0.040,   1120.000,     1260.000,  0.8000E-01
 Material CTF Summary,G02 16MM PLYWOOD,  0.0159,         0.120,    544.000,     1210.000,  0.1325    
 CTF,   9,     -0.78519687E-11,     -0.19725818E-14,     -0.15717900E-13,      0.15242731E-15
 CTF,   8,      0.37588610E-07,      0.16990853E-10,      0.14283227E-08,     -0.12153301E-10
 CTF,   7,     -0.19148750E-04,      0.56359084E-07,     -0.19686200E-05,      0.17272824E-07
 CTF,   6,      0.29192917E-02,      0.22484811E-04,      0.59989187E-03,     -0.57451316E-05
 CTF,   5,     -0.15007605    ,      0.16493234E-02,     -0.52187459E-01,      0.57271756E-03
 CTF,   4,       2.7151590    ,      0.26999827E-01,       1.4298365    ,     -0.18756129E-01
 CTF,   3,      -19.150031    ,      0.10664374    ,      -13.356877    ,      0.21816812    
 CTF,   2,       57.115955    ,      0.96773865E-01,       47.295601    ,     -0.97882392    
 CTF,   1,      -72.385517    ,      0.14849183E-01,      -66.325100    ,       1.7263494    
 CTF,   0,       32.098647    ,      0.99392441E-04,       31.255166    
 Construction CTF,INT_WALL,   6,   2,   9,   0.017,      6.299    ,   0.900,   0.900,   0.700,   0.700,Smooth
 Material CTF Summary,G01 13MM GYPSUM BOARD,  0.0127,         0.160,    800.000,     1090.000,  0.7937E-01
 Material CTF Summary,G01 13MM GYPSUM BOARD,  0.0127,         0.160,    800.000,     1090.000,  0.7937E-01
 CTF,   9,     -0.12864864E-10,      0.19924024E-12,     -0.12864866E-10,      0.20356029E-13
 CTF,   8,      0.28581050E-07,      0.80512746E-09,      0.28581050E-07,     -0.57880166E-10
 CTF,   7,     -0.19015195E-04,      0.61885852E-06,     -0.19015195E-04,      0.52113948E-07
 CTF,   6,      0.36312852E-02,      0.10455019E-03,      0.36312852E-02,     -0.13799496E-04
 CTF,   5,     -0.20653166    ,      0.42754902E-02,     -0.20653166    ,      0.10942145E-02
 CTF,   4,       3.9016148    ,      0.45374246E-01,       3.9016148    ,     -0.28783696E-01
 CTF,   3,      -27.862527    ,      0.12703483    ,      -27.862527    ,      0.28290664    
 CTF,   2,       82.798732    ,      0.85517023E-01,       82.798732    ,      -1.1270974    
 CTF,   1,      -103.81107    ,      0.96927578E-02,      -103.81107    ,       1.8287075    
 CTF,   0,       45.448212    ,      0.41260040E-04,       45.448212    
 Construction CTF,EXT_SLAB_8IN_WITH_CARPET,   7,   2,  10,   0.117,      3.285    ,   0.900,   0.900,   0.700,   0.700,MediumRough
 Material CTF Summary,200MM NORMALWEIGHT CONCRETE FLOOR,  0.2032,         2.310,   2322.000,      832.000,  0.8797E-01
 Material CTF Summary,CP02 CARPET PAD,  0.0000,         0.000,      0.000,        0.000,  0.2165    
 CTF,  10,      0.91217396E-10,      0.12066199E-12,      0.43442676E-12,     -0.34263869E-13
 CTF,   9,     -0.13339235E-06,      0.14971363E-09,     -0.61933620E-09,      0.77339419E-10
 CTF,   8,      0.60511275E-04,      0.50648844E-07,      0.32924193E-06,     -0.53971974E-07
 CTF,   7,     -0.86826746E-02,      0.49380015E-05,     -0.62492280E-04,      0.11744830E-04
 CTF,   6,      0.42045978    ,      0.14553982E-03,      0.42160742E-02,     -0.84674922E-03
 CTF,   5,      -7.6281196    ,      0.13530616E-02,     -0.10714107    ,      0.22283744E-01
 CTF,   4,       58.507638    ,      0.39774644E-02,       1.1219226    ,     -0.23838991    
 CTF,   3,      -210.01536    ,      0.35868711E-02,      -5.2727467    ,       1.1377900    
 CTF,   2,       371.32864    ,      0.65678470E-03,       11.684734    ,      -2.5535954    
 CTF,   1,      -313.31785    ,      0.14323339E-03,      -11.897712    ,       2.6297558    
 CTF,   0,       100.72304    ,      0.44180478E-04,       4.4766127    
 Construction CTF,EXT_SLAB_8IN,   8,   1,  15,   0.017,      11.37    ,   0.900,   0.900,   0.700,   0.700,MediumRough
 Material CTF Summary,200MM NORMALWEIGHT CONCRETE FLOOR,  0.2032,         2.310,   2322.000,      832.000,  0.8797E-01
 CTF,  15,     -0.62489228E-03,     -0.57491905E-15,     -0.62489228E-03,      0.28991473E-05
 CTF,  14,      0.25859840E-01,      0.22070226E-14,      0.25859840E-01,     -0.12147574E-03
 CTF,  13,     -0.48670076    ,      0.38091237E-13,     -0.48670076    ,      0.23173486E-02
 CTF,  12,       5.5230165    ,      0.48693439E-11,       5.5230165    ,     -0.26684689E-01
 CTF,  11,      -42.242031    ,      0.26409231E-09,      -42.242031    ,      0.20734635    
 CTF,  10,       230.58655    ,      0.53205235E-08,       230.58655    ,      -1.1512577    
 CTF,   9,      -927.90180    ,      0.47544369E-07,      -927.90180    ,       4.7179422    
 CTF,   8,       2803.0059    ,      0.20292693E-06,       2803.0059    ,      -14.531377    
 CTF,   7,      -6409.6889    ,      0.42926213E-06,      -6409.6889    ,       33.920177    
 CTF,   6,       11099.064    ,      0.44926263E-06,       11099.064    ,      -60.024620    
 CTF,   5,      -14441.763    ,      0.22551308E-06,      -14441.763    ,       79.898416    
 CTF,   4,       13874.930    ,      0.49729558E-07,       13874.930    ,      -78.603089    
 CTF,   3,      -9534.5520    ,      0.43617640E-08,      -9534.5520    ,       55.357183    
 CTF,   2,       4427.6003    ,      0.24885225E-10,       4427.6003    ,      -26.365489    
 CTF,   1,      -1243.4484    ,      0.21505954E-10,      -1243.4484    ,       7.5992544    
 CTF,   0,       159.34768    ,     -0.27692343E-11,       159.34768    
 Construction CTF,EXT_SLAB_6IN_WITH_CARPET,   9,   2,  11,   0.067,      3.540    ,   0.900,   0.900,   0.700,   0.700,MediumRough
 Material CTF Summary,150MM NORMALWEIGHT CONCRETE FLOOR,  0.1524,         2.310,   2322.000,      832.000,  0.6597E-01
 Material CTF Summary,CP02 CARPET PAD,  0.0000,         0.000,      0.000,        0.000,  0.2165    
 CTF,  11,     -0.15669178E-11,     -0.92750921E-15,     -0.17888108E-13,      0.25895902E-14
 CTF,  10,      0.17037431E-08,      0.60417624E-13,      0.18865671E-10,     -0.30292718E-11
 CTF,   9,     -0.80665127E-06,      0.88128939E-10,     -0.88149545E-08,      0.15463184E-08
 CTF,   8,      0.17139434E-03,      0.30699272E-07,      0.19280478E-05,     -0.36361245E-06
 CTF,   7,     -0.15750186E-01,      0.30891254E-05,     -0.19175708E-03,      0.38103565E-04
 CTF,   6,      0.60673431    ,      0.97193759E-04,      0.83873326E-02,     -0.17245334E-02
 CTF,   5,      -9.9170053    ,      0.10056105E-02,     -0.16157392    ,      0.33955726E-01
 CTF,   4,       72.749024    ,      0.34043213E-02,       1.4253308    ,     -0.30404411    
 CTF,   3,      -256.16695    ,      0.37098324E-02,      -6.0391697    ,       1.3029302    
 CTF,   2,       448.94640    ,      0.90736545E-03,       12.569178    ,      -2.7377049    
 CTF,   1,      -377.13195    ,      0.17205551E-03,      -12.308061    ,       2.7039357    
 CTF,   0,       120.93858    ,      0.44460719E-04,       4.5153533    
 Construction CTF,EXT_SLAB_6IN,  10,   1,  11,   0.017,      15.16    ,   0.900,   0.900,   0.700,   0.700,MediumRough
 Material CTF Summary,150MM NORMALWEIGHT CONCRETE FLOOR,  0.1524,         2.310,   2322.000,      832.000,  0.6597E-01
 CTF,  11,     -0.21939064E-01,      0.53786681E-14,     -0.21939064E-01,      0.10178487E-03
 CTF,  10,      0.64988563    ,      0.41129313E-10,      0.64988563    ,     -0.30677891E-02
 CTF,   9,      -8.4373433    ,      0.10341421E-07,      -8.4373433    ,      0.40607941E-01
 CTF,   8,       63.318783    ,      0.47006520E-06,       63.318783    ,     -0.31138489    
 CTF,   7,      -305.06249    ,      0.64331797E-05,      -305.06249    ,       1.5363217    
 CTF,   6,       990.77210    ,      0.32540134E-04,       990.77210    ,      -5.1210618    
 CTF,   5,      -2214.4530    ,      0.65884549E-04,      -2214.4530    ,       11.772646    
 CTF,   4,       3409.1727    ,      0.53428016E-04,       3409.1727    ,      -18.678446    
 CTF,   3,      -3547.1194    ,      0.16039094E-04,      -3547.1194    ,       20.064317    
 CTF,   2,       2379.0044    ,      0.14528553E-05,       2379.0044    ,      -13.914476    
 CTF,   1,      -927.17128    ,      0.23838146E-07,      -927.17128    ,       5.6144305    
 CTF,   0,       159.34768    ,      0.10533514E-10,       159.34768    
 Construction CTF,INT_SLAB_FLOOR,  11,   2,   9,   0.033,      3.839    ,   0.900,   0.900,   0.700,   0.700,MediumRough
 Material CTF Summary,100MM NORMALWEIGHT CONCRETE FLOOR,  0.1016,         2.310,   2322.000,      832.000,  0.4398E-01
 Material CTF Summary,CP02 CARPET PAD,  0.0000,         0.000,      0.000,        0.000,  0.2165    
 CTF,   9,      0.37403193E-14,     -0.22400978E-15,     -0.19740008E-10,      0.51264724E-17
 CTF,   8,      0.30887990E-03,      0.43820143E-10,      0.55556998E-05,     -0.11383955E-05
 CTF,   7,     -0.26410297E-01,      0.84047718E-07,     -0.48304805E-03,      0.10025605E-03
 CTF,   6,      0.82217991    ,      0.11548211E-04,      0.15499758E-01,     -0.32544879E-02
 CTF,   5,      -11.731247    ,      0.32429097E-03,     -0.23230838    ,      0.49277582E-01
 CTF,   4,       81.889815    ,      0.23153540E-02,       1.7426778    ,     -0.37289939    
 CTF,   3,      -287.58037    ,      0.48643510E-02,      -6.7121893    ,       1.4471037    
 CTF,   2,       511.51122    ,      0.25453480E-02,       13.243360    ,      -2.8743141    
 CTF,   1,      -437.96036    ,      0.38740098E-03,      -12.598424    ,       2.7512751    
 CTF,   0,       143.08528    ,      0.35904521E-04,       4.5522761    
 Construction CTF,INT_SLAB_CEILING,  12,   2,   9,   0.033,      3.839    ,   0.900,   0.900,   0.700,   0.700,VeryRough
 Material CTF Summary,CP02 CARPET PAD,  0.0000,         0.000,      0.000,        0.000,  0.2165    
 Material CTF Summary,100MM NORMALWEIGHT CONCRETE FLOOR,  0.1016,         2.310,   2322.000,      832.000,  0.4398E-01
 CTF,   9,     -0.19740008E-10,     -0.22400978E-15,      0.37403193E-14,      0.51264724E-17
 CTF,   8,      0.55556998E-05,      0.43820143E-10,      0.30887990E-03,     -0.11383955E-05
 CTF,   7,     -0.48304805E-03,      0.84047718E-07,     -0.26410297E-01,      0.10025605E-03
 CTF,   6,      0.15499758E-01,      0.11548211E-04,      0.82217991    ,     -0.32544879E-02
 CTF,   5,     -0.23230838    ,      0.32429097E-03,      -11.731247    ,      0.49277582E-01
 CTF,   4,       1.7426778    ,      0.23153540E-02,       81.889815    ,     -0.37289939    
 CTF,   3,      -6.7121893    ,      0.48643510E-02,      -287.58037    ,       1.4471037    
 CTF,   2,       13.243360    ,      0.25453480E-02,       511.51122    ,      -2.8743141    
 CTF,   1,      -12.598424    ,      0.38740098E-03,      -437.96036    ,       2.7512751    
 CTF,   0,       4.5522761    ,      0.35904521E-04,       143.08528    
 Construction CTF,BASEMENT_WALL,  13,   1,  18,   0.033,      6.526    ,   0.900,   0.900,   0.700,   0.700,MediumRough
 Material CTF Summary,M10 200MM CONCRETE BLOCK BASEMENT WALL,  0.2032,         1.326,   1842.000,      912.000,  0.1532    
 CTF,  18,      0.60693599E-10,     -0.14490705E-19,      0.60692230E-10,     -0.34037809E-12
 CTF,  17,     -0.94426198E-08,     -0.39289649E-16,     -0.94426234E-08,      0.53658357E-10
 CTF,  16,      0.65333868E-06,     -0.31608240E-14,      0.65333867E-06,     -0.37681868E-08
 CTF,  15,     -0.26605839E-04,     -0.34047510E-14,     -0.26605839E-04,      0.15606399E-06
 CTF,  14,      0.71184979E-03,      0.18156138E-12,      0.71184979E-03,     -0.42563986E-05
 CTF,  13,     -0.13241509E-01,      0.18571047E-10,     -0.13241509E-01,      0.80914740E-04
 CTF,  12,      0.17694551    ,      0.81278799E-09,      0.17694551    ,     -0.11080833E-02
 CTF,  11,      -1.7329740    ,      0.17141394E-07,      -1.7329740    ,      0.11154416E-01
 CTF,  10,       12.594383    ,      0.18511034E-06,       12.594383    ,     -0.83573295E-01
 CTF,   9,      -68.414073    ,      0.10569393E-05,      -68.414073    ,      0.46943204    
 CTF,   8,       278.68445    ,      0.32250184E-05,       278.68445    ,      -1.9829559    
 CTF,   7,      -850.87140    ,      0.52129256E-05,      -850.87140    ,       6.2945051    
 CTF,   6,       1937.9258    ,      0.43302766E-05,       1937.9258    ,      -14.938491    
 CTF,   5,      -3258.7000    ,      0.17430907E-05,      -3258.7000    ,       26.223267    
 CTF,   4,       3971.3895    ,      0.30624877E-06,       3971.3895    ,      -33.409923    
 CTF,   3,      -3398.0344    ,      0.19705482E-07,      -3398.0344    ,       29.914981    
 CTF,   2,       1929.8839    ,      0.21645056E-09,       1929.8839    ,      -17.790549    
 CTF,   1,      -651.77208    ,      0.34307293E-10,      -651.77208    ,       6.2931813    
 CTF,   0,       98.882479    ,     -0.53158760E-11,       98.882479    
 Construction CTF,INT_WOOD_FLOOR,  14,   3,  11,   0.017,      1.749    ,   0.900,   0.900,   0.700,   0.700,MediumSmooth
 Material CTF Summary,AC02 ACOUSTIC CEILING,  0.0127,         0.057,    288.000,     1339.000,  0.2228    
 Material CTF Summary,G02 16MM PLYWOOD,  0.0159,         0.120,    544.000,     1210.000,  0.1325    
 Material CTF Summary,CP02 CARPET PAD,  0.0000,         0.000,      0.000,        0.000,  0.2165    
 CTF,  11,     -0.58179007E-12,     -0.68604808E-15,     -0.57316134E-13,      0.52777417E-14
 CTF,  10,      0.50996551E-09,      0.54718462E-13,      0.49841895E-10,     -0.52061407E-11
 CTF,   9,     -0.19486929E-06,      0.72824321E-10,     -0.18394320E-07,      0.22410157E-08
 CTF,   8,      0.34435211E-04,      0.23275898E-07,      0.31797244E-05,     -0.45337937E-06
 CTF,   7,     -0.27560576E-02,      0.21740820E-05,     -0.25924332E-03,      0.42426569E-04
 CTF,   6,      0.96056219E-01,      0.64713848E-04,      0.98243760E-02,     -0.17807228E-02
 CTF,   5,      -1.4861572    ,      0.64068535E-03,     -0.17347594    ,      0.33837944E-01
 CTF,   4,       10.559635    ,      0.21154850E-02,       1.4487384    ,     -0.29779785    
 CTF,   3,      -36.666719    ,      0.22103422E-02,      -5.9459267    ,       1.2733248    
 CTF,   2,       64.004193    ,      0.60898034E-03,       12.119669    ,      -2.6862587    
 CTF,   1,      -53.844995    ,      0.33707495E-04,      -11.705473    ,       2.6753880    
 CTF,   0,       17.346383    ,      0.18579948E-05,       4.2525744    
 Construction CTF,EXT_SOFFIT_FLOOR,  15,   1,   5,   0.017,      7.547    ,   0.900,   0.900,   0.700,   0.700,Smooth
 Material CTF Summary,G02 16MM PLYWOOD,  0.0159,         0.120,    544.000,     1210.000,  0.1325    
 CTF,   5,     -0.16131383E-03,      0.31768172E-05,     -0.16131383E-03,      0.13720333E-05
 CTF,   4,      0.46060671E-01,      0.23302341E-02,      0.46060671E-01,     -0.45116698E-03
 CTF,   3,      -2.0660182    ,      0.11361947    ,      -2.0660182    ,      0.25651889E-01
 CTF,   2,       18.793077    ,      0.70830598    ,       18.793077    ,     -0.31710841    
 CTF,   1,      -46.526558    ,      0.63071265    ,      -46.526558    ,       1.0929476    
 CTF,   0,       31.255176    ,      0.46603784E-01,       31.255176    
 Construction CTF,NONRES_ROOF,  16,   3,   7,   0.017,     0.3765    ,   0.900,   0.900,   0.700,   0.700,Rough
 Material CTF Summary,F13 BUILT-UP ROOFING,  0.0095,         0.160,   1120.000,     1460.000,  0.5938E-01
 Material CTF Summary,NONRES_ROOF_INSULATION,  0.0000,         0.000,      0.000,        0.000,   2.597    
 Material CTF Summary,F08 METAL SURFACE,  0.0008,        45.280,   7824.000,      500.000,  0.1767E-04
 CTF,   7,      0.13823057E-14,     -0.88834466E-11,     -0.15238254E-09,       0.0000000    
 CTF,   6,      0.26081161E-08,     -0.16263595E-10,      0.18278334E-05,     -0.29223712E-11
 CTF,   5,     -0.26320525E-04,      0.50255435E-07,     -0.35773068E-02,      0.35040107E-07
 CTF,   4,      0.32755541E-01,      0.41014224E-04,      0.72985207    ,     -0.68548463E-04
 CTF,   3,      -3.6727310    ,      0.25809071E-02,      -16.740898    ,      0.13923583E-01
 CTF,   2,       43.359255    ,      0.17997396E-01,       78.348692    ,     -0.30692752    
 CTF,   1,      -101.41025    ,      0.16035231E-01,      -114.83956    ,       1.1928938    
 CTF,   0,       61.728713    ,      0.10642767E-02,       52.543208    
 Construction CTF,RES_ROOF,  17,   3,   7,   0.017,      11.19    ,   0.900,   0.900,   0.700,   0.700,Rough
 Material CTF Summary,F13 BUILT-UP ROOFING,  0.0095,         0.160,   1120.000,     1460.000,  0.5938E-01
 Material CTF Summary,RES_ROOF_INSULATION,  0.0000,         0.000,      0.000,        0.000,  0.2994E-01
 Material CTF Summary,F08 METAL SURFACE,  0.0008,        45.280,   7824.000,      500.000,  0.1767E-04
 CTF,   7,     -0.98436903E-15,     -0.19081749E-12,     -0.27822136E-10,       0.0000000    
 CTF,   6,      0.56512804E-09,      0.66359360E-10,      0.58323850E-06,     -0.63325584E-12
 CTF,   5,     -0.88571264E-05,      0.16035609E-05,     -0.15367135E-02,      0.11145730E-07
 CTF,   4,      0.14900013E-01,      0.16735363E-02,      0.40738252    ,     -0.29262210E-04
 CTF,   3,      -2.1569803    ,      0.12835572    ,      -11.862415    ,      0.76733895E-02
 CTF,   2,       31.971731    ,       1.0466463    ,       71.204537    ,     -0.21029344    
 CTF,   1,      -89.243354    ,       1.0593170    ,      -133.97315    ,      0.99584635    
 CTF,   0,       61.728721    ,      0.79014318E-01,       76.540189    
 Construction CTF,SEMIHEATED_ROOF,  18,   3,   7,   0.017,      11.19    ,   0.900,   0.900,   0.700,   0.700,Rough
 Material CTF Summary,F13 BUILT-UP ROOFING,  0.0095,         0.160,   1120.000,     1460.000,  0.5938E-01
 Material CTF Summary,SEMIHEATED_ROOF_INSULATION,  0.0000,         0.000,      0.000,        0.000,  0.2994E-01
 Material CTF Summary,F08 METAL SURFACE,  0.0008,        45.280,   7824.000,      500.000,  0.1767E-04
 CTF,   7,     -0.98436903E-15,     -0.19081749E-12,     -0.27822136E-10,       0.0000000    
 CTF,   6,      0.56512804E-09,      0.66359360E-10,      0.58323850E-06,     -0.63325584E-12
 CTF,   5,     -0.88571264E-05,      0.16035609E-05,     -0.15367135E-02,      0.11145730E-07
 CTF,   4,      0.14900013E-01,      0.16735363E-02,      0.40738252    ,     -0.29262210E-04
 CTF,   3,      -2.1569803    ,      0.12835572    ,      -11.862415    ,      0.76733895E-02
 CTF,   2,       31.971731    ,       1.0466463    ,       71.204537    ,     -0.21029344    
 CTF,   1,      -89.243354    ,       1.0593170    ,      -133.97315    ,      0.99584635    
 CTF,   0,       61.728721    ,      0.79014318E-01,       76.540189    
 Construction CTF,NONRES_EXT_WALL,  19,   3,  16,   0.050,     0.7794    ,   0.900,   0.900,   0.700,   0.700,MediumRough
 Material CTF Summary,200MM NORMALWEIGHT CONCRETE WALL,  0.2032,         2.310,   2322.000,      832.000,  0.8797E-01
 Material CTF Summary,NONRES_EXTERIOR_WALL_INSULATION,  0.0000,         0.000,      0.000,        0.000,   1.116    
 Material CTF Summary,G01 13MM GYPSUM BOARD,  0.0127,         0.160,    800.000,     1090.000,  0.7937E-01
 CTF,  16,      0.94862098E-12,      0.12234538E-20,      0.20117542E-11,     -0.25918707E-14
 CTF,  15,     -0.19378859E-09,     -0.28227393E-16,     -0.31652644E-09,      0.54655979E-12
 CTF,  14,      0.24182493E-07,      0.85512395E-14,      0.31744907E-07,     -0.70207972E-10
 CTF,  13,     -0.19363910E-05,      0.17872734E-12,     -0.20677126E-05,      0.58173889E-08
 CTF,  12,      0.10146946E-03,      0.19881195E-10,      0.87923991E-04,     -0.31742222E-06
 CTF,  11,     -0.34990230E-02,      0.92040776E-09,     -0.24462773E-02,      0.11483521E-04
 CTF,  10,      0.79214549E-01,      0.20937748E-07,      0.44758598E-01,     -0.27514045E-03
 CTF,   9,      -1.1724842    ,      0.23887239E-06,     -0.54385290    ,      0.43503252E-02
 CTF,   8,       11.343330    ,      0.13734444E-05,       4.4438143    ,     -0.45345547E-01
 CTF,   7,      -72.148760    ,      0.39391485E-05,      -24.694312    ,      0.31273751    
 CTF,   6,       304.49283    ,      0.54715645E-05,       93.964932    ,      -1.4362504    
 CTF,   5,      -858.72719    ,      0.34787539E-05,      -244.89120    ,       4.4119340    
 CTF,   4,       1616.2301    ,      0.90972105E-06,       433.31427    ,      -9.0367798    
 CTF,   3,      -1996.6100    ,      0.84931926E-07,      -508.82209    ,       12.124740    
 CTF,   2,       1549.8393    ,      0.26482233E-08,       377.98491    ,      -10.195293    
 CTF,   1,      -684.03959    ,      0.13056312E-08,      -160.31415    ,       4.8601511    
 CTF,   0,       130.71668    ,     -0.26648766E-09,       29.515298    
 Construction CTF,RES_EXT_WALL,  20,   3,  18,   0.033,      5.069    ,   0.900,   0.900,   0.700,   0.700,MediumRough
 Material CTF Summary,200MM NORMALWEIGHT CONCRETE WALL,  0.2032,         2.310,   2322.000,      832.000,  0.8797E-01
 Material CTF Summary,RES_EXTERIOR_WALL_INSULATION,  0.0000,         0.000,      0.000,        0.000,  0.2994E-01
 Material CTF Summary,G01 13MM GYPSUM BOARD,  0.0127,         0.160,    800.000,     1090.000,  0.7937E-01
 CTF,  18,      0.40462484E-11,      0.98448031E-21,      0.95463428E-11,     -0.14979096E-13
 CTF,  17,     -0.76156142E-09,     -0.48071312E-18,     -0.11727577E-08,      0.28445299E-11
 CTF,  16,      0.68004883E-07,      0.41934760E-15,      0.80465761E-07,     -0.25750851E-09
 CTF,  15,     -0.36122413E-05,      0.95883984E-14,     -0.34925893E-05,      0.13899020E-07
 CTF,  14,      0.12583205E-03,      0.40644721E-12,      0.10237184E-03,     -0.49327855E-06
 CTF,  13,     -0.30237933E-02,      0.31678671E-10,     -0.21052646E-02,      0.12112749E-04
 CTF,  12,      0.51576655E-01,      0.11494274E-08,      0.31110248E-01,     -0.21183452E-03
 CTF,  11,     -0.63491933    ,      0.21263560E-07,     -0.33552248    ,      0.26836444E-02
 CTF,  10,       5.6962451    ,      0.20776099E-06,       2.6680062    ,     -0.24874822E-01
 CTF,   9,      -37.454447    ,      0.10906578E-05,      -15.740845    ,      0.16964758    
 CTF,   8,       180.99497    ,      0.30763650E-05,       69.105824    ,     -0.85348775    
 CTF,   7,      -642.86741    ,      0.45870531E-05,      -225.64861    ,       3.1664251    
 CTF,   6,       1672.6576    ,      0.34776406E-05,       545.52875    ,      -8.6290466    
 CTF,   5,      -3160.9420    ,      0.12595887E-05,      -966.85239    ,       17.116315    
 CTF,   4,       4267.0907    ,      0.18664901E-06,       1233.8553    ,      -24.290481    
 CTF,   3,      -3993.3173    ,      0.15303920E-07,      -1099.0583    ,       23.921042    
 CTF,   2,       2453.3466    ,     -0.32461768E-08,       646.51278    ,      -15.472486    
 CTF,   1,      -887.70397    ,      0.12774376E-08,      -225.15975    ,       5.8944607    
 CTF,   0,       143.08528    ,     -0.21575246E-09,       35.095706    
 Construction CTF,SEMIHEATED_EXT_WALL,  21,   3,  18,   0.033,      5.069    ,   0.900,   0.900,   0.700,   0.700,MediumRough
 Material CTF Summary,200MM NORMALWEIGHT CONCRETE WALL,  0.2032,         2.310,   2322.000,      832.000,  0.8797E-01
 Material CTF Summary,SEMIHEATED_EXTERIOR_WALL_INSULATION,  0.0000,         0.000,      0.000,        0.000,  0.2994E-01
 Material CTF Summary,G01 13MM GYPSUM BOARD,  0.0127,         0.160,    800.000,     1090.000,  0.7937E-01
 CTF,  18,      0.40462484E-11,      0.98448031E-21,      0.95463428E-11,     -0.14979096E-13
 CTF,  17,     -0.76156142E-09,     -0.48071312E-18,     -0.11727577E-08,      0.28445299E-11
 CTF,  16,      0.68004883E-07,      0.41934760E-15,      0.80465761E-07,     -0.25750851E-09
 CTF,  15,     -0.36122413E-05,      0.95883984E-14,     -0.34925893E-05,      0.13899020E-07
 CTF,  14,      0.12583205E-03,      0.40644721E-12,      0.10237184E-03,     -0.49327855E-06
 CTF,  13,     -0.30237933E-02,      0.31678671E-10,     -0.21052646E-02,      0.12112749E-04
 CTF,  12,      0.51576655E-01,      0.11494274E-08,      0.31110248E-01,     -0.21183452E-03
 CTF,  11,     -0.63491933    ,      0.21263560E-07,     -0.33552248    ,      0.26836444E-02
 CTF,  10,       5.6962451    ,      0.20776099E-06,       2.6680062    ,     -0.24874822E-01
 CTF,   9,      -37.454447    ,      0.10906578E-05,      -15.740845    ,      0.16964758    
 CTF,   8,       180.99497    ,      0.30763650E-05,       69.105824    ,     -0.85348775    
 CTF,   7,      -642.86741    ,      0.45870531E-05,      -225.64861    ,       3.1664251    
 CTF,   6,       1672.6576    ,      0.34776406E-05,       545.52875    ,      -8.6290466    
 CTF,   5,      -3160.9420    ,      0.12595887E-05,      -966.85239    ,       17.116315    
 CTF,   4,       4267.0907    ,      0.18664901E-06,       1233.8553    ,      -24.290481    
 CTF,   3,      -3993.3173    ,      0.15303920E-07,      -1099.0583    ,       23.921042    
 CTF,   2,       2453.3466    ,     -0.32461768E-08,       646.51278    ,      -15.472486    
 CTF,   1,      -887.70397    ,      0.12774376E-08,      -225.15975    ,       5.8944607    
 CTF,   0,       143.08528    ,     -0.21575246E-09,       35.095706    
 Construction CTF,NONRES_FLOOR,  22,   3,  10,   0.017,      3.444    ,   0.900,   0.900,   0.700,   0.700,MediumSmooth
 Material CTF Summary,NONRES_FLOOR_INSULATION,  0.0000,         0.000,      0.000,        0.000,  0.2994E-01
 Material CTF Summary,100MM NORMALWEIGHT CONCRETE FLOOR,  0.1016,         2.310,   2322.000,      832.000,  0.4398E-01
 Material CTF Summary,CP02 CARPET PAD,  0.0000,         0.000,      0.000,        0.000,  0.2165    
 CTF,  10,      0.13272751E-08,     -0.13712596E-15,      0.95971884E-08,     -0.34067311E-16
 CTF,   9,     -0.10400662E-01,      0.35973454E-06,     -0.12995372E-02,      0.27673267E-03
 CTF,   8,      0.28053191    ,     -0.99115113E-05,      0.35722531E-01,     -0.76295727E-02
 CTF,   7,      -3.2069182    ,      0.11580244E-03,     -0.41609284    ,      0.89126788E-01
 CTF,   6,       20.322447    ,     -0.74641270E-03,       2.6857755    ,     -0.57695181    
 CTF,   5,      -78.464409    ,      0.29587029E-02,      -10.557598    ,       2.2744490    
 CTF,   4,       191.12548    ,     -0.72879004E-02,       26.168716    ,      -5.6535238    
 CTF,   3,      -293.70112    ,      0.11456980E-01,      -40.896647    ,       8.8599301    
 CTF,   2,       274.96603    ,     -0.10884342E-01,       38.914430    ,      -8.4534906    
 CTF,   1,      -142.69313    ,      0.57378333E-02,      -20.512071    ,       4.4677954    
 CTF,   0,       31.381555    ,     -0.12797091E-02,       4.5791263    
 Construction CTF,RES_FLOOR,  23,   3,  10,   0.017,      3.444    ,   0.900,   0.900,   0.700,   0.700,MediumSmooth
 Material CTF Summary,RES_FLOOR_INSULATION,  0.0000,         0.000,      0.000,        0.000,  0.2994E-01
 Material CTF Summary,100MM NORMALWEIGHT CONCRETE FLOOR,  0.1016,         2.310,   2322.000,      832.000,  0.4398E-01
 Material CTF Summary,CP02 CARPET PAD,  0.0000,         0.000,      0.000,        0.000,  0.2165    
 CTF,  10,      0.13272751E-08,     -0.13712596E-15,      0.95971884E-08,     -0.34067311E-16
 CTF,   9,     -0.10400662E-01,      0.35973454E-06,     -0.12995372E-02,      0.27673267E-03
 CTF,   8,      0.28053191    ,     -0.99115113E-05,      0.35722531E-01,     -0.76295727E-02
 CTF,   7,      -3.2069182    ,      0.11580244E-03,     -0.41609284    ,      0.89126788E-01
 CTF,   6,       20.322447    ,     -0.74641270E-03,       2.6857755    ,     -0.57695181    
 CTF,   5,      -78.464409    ,      0.29587029E-02,      -10.557598    ,       2.2744490    
 CTF,   4,       191.12548    ,     -0.72879004E-02,       26.168716    ,      -5.6535238    
 CTF,   3,      -293.70112    ,      0.11456980E-01,      -40.896647    ,       8.8599301    
 CTF,   2,       274.96603    ,     -0.10884342E-01,       38.914430    ,      -8.4534906    
 CTF,   1,      -142.69313    ,      0.57378333E-02,      -20.512071    ,       4.4677954    
 CTF,   0,       31.381555    ,     -0.12797091E-02,       4.5791263    
 Construction CTF,SEMIHEATED_FLOOR,  24,   3,  10,   0.017,      3.444    ,   0.900,   0.900,   0.700,   0.700,MediumSmooth
 Material CTF Summary,SEMIHEATED_FLOOR_INSULATION,  0.0000,         0.000,      0.000,        0.000,  0.2994E-01
 Material CTF Summary,100MM NORMALWEIGHT CONCRETE FLOOR,  0.1016,         2.310,   2322.000,      832.000,  0.4398E-01
 Material CTF Summary,CP02 CARPET PAD,  0.0000,         0.000,      0.000,        0.000,  0.2165    
 CTF,  10,      0.13272751E-08,     -0.13712596E-15,      0.95971884E-08,     -0.34067311E-16
 CTF,   9,     -0.10400662E-01,      0.35973454E-06,     -0.12995372E-02,      0.27673267E-03
 CTF,   8,      0.28053191    ,     -0.99115113E-05,      0.35722531E-01,     -0.76295727E-02
 CTF,   7,      -3.2069182    ,      0.11580244E-03,     -0.41609284    ,      0.89126788E-01
 CTF,   6,       20.322447    ,     -0.74641270E-03,       2.6857755    ,     -0.57695181    
 CTF,   5,      -78.464409    ,      0.29587029E-02,      -10.557598    ,       2.2744490    
 CTF,   4,       191.12548    ,     -0.72879004E-02,       26.168716    ,      -5.6535238    
 CTF,   3,      -293.70112    ,      0.11456980E-01,      -40.896647    ,       8.8599301    
 CTF,   2,       274.96603    ,     -0.10884342E-01,       38.914430    ,      -8.4534906    
 CTF,   1,      -142.69313    ,      0.57378333E-02,      -20.512071    ,       4.4677954    
 CTF,   0,       31.381555    ,     -0.12797091E-02,       4.5791263    
 Construction CTF,NONRES_FLOOR_CEILING,  25,   3,  10,   0.017,      3.444    ,   0.900,   0.900,   0.700,   0.700,VeryRough
 Material CTF Summary,CP02 CARPET PAD,  0.0000,         0.000,      0.000,        0.000,  0.2165    
 Material CTF Summary,100MM NORMALWEIGHT CONCRETE FLOOR,  0.1016,         2.310,   2322.000,      832.000,  0.4398E-01
 Material CTF Summary,NONRES_FLOOR_INSULATION,  0.0000,         0.000,      0.000,        0.000,  0.2994E-01
 CTF,  10,      0.95971884E-08,     -0.13712596E-15,      0.13272751E-08,     -0.34067311E-16
 CTF,   9,     -0.12995372E-02,      0.35973454E-06,     -0.10400662E-01,      0.27673267E-03
 CTF,   8,      0.35722531E-01,     -0.99115113E-05,      0.28053191    ,     -0.76295727E-02
 CTF,   7,     -0.41609284    ,      0.11580244E-03,      -3.2069182    ,      0.89126788E-01
 CTF,   6,       2.6857755    ,     -0.74641270E-03,       20.322447    ,     -0.57695181    
 CTF,   5,      -10.557598    ,      0.29587029E-02,      -78.464409    ,       2.2744490    
 CTF,   4,       26.168716    ,     -0.72879004E-02,       191.12548    ,      -5.6535238    
 CTF,   3,      -40.896647    ,      0.11456980E-01,      -293.70112    ,       8.8599301    
 CTF,   2,       38.914430    ,     -0.10884342E-01,       274.96603    ,      -8.4534906    
 CTF,   1,      -20.512071    ,      0.57378333E-02,      -142.69313    ,       4.4677954    
 CTF,   0,       4.5791263    ,     -0.12797091E-02,       31.381555    
 Construction CTF,RES_FLOOR_CEILING,  26,   3,  10,   0.017,      3.444    ,   0.900,   0.900,   0.700,   0.700,VeryRough
 Material CTF Summary,CP02 CARPET PAD,  0.0000,         0.000,      0.000,        0.000,  0.2165    
 Material CTF Summary,100MM NORMALWEIGHT CONCRETE FLOOR,  0.1016,         2.310,   2322.000,      832.000,  0.4398E-01
 Material CTF Summary,RES_FLOOR_INSULATION,  0.0000,         0.000,      0.000,        0.000,  0.2994E-01
 CTF,  10,      0.95971884E-08,     -0.13712596E-15,      0.13272751E-08,     -0.34067311E-16
 CTF,   9,     -0.12995372E-02,      0.35973454E-06,     -0.10400662E-01,      0.27673267E-03
 CTF,   8,      0.35722531E-01,     -0.99115113E-05,      0.28053191    ,     -0.76295727E-02
 CTF,   7,     -0.41609284    ,      0.11580244E-03,      -3.2069182    ,      0.89126788E-01
 CTF,   6,       2.6857755    ,     -0.74641270E-03,       20.322447    ,     -0.57695181    
 CTF,   5,      -10.557598    ,      0.29587029E-02,      -78.464409    ,       2.2744490    
 CTF,   4,       26.168716    ,     -0.72879004E-02,       191.12548    ,      -5.6535238    
 CTF,   3,      -40.896647    ,      0.11456980E-01,      -293.70112    ,       8.8599301    
 CTF,   2,       38.914430    ,     -0.10884342E-01,       274.96603    ,      -8.4534906    
 CTF,   1,      -20.512071    ,      0.57378333E-02,      -142.69313    ,       4.4677954    
 CTF,   0,       4.5791263    ,     -0.12797091E-02,       31.381555    
 Construction CTF,SEMIHEATED_FLOOR_CEILING,  27,   3,  10,   0.017,      3.444    ,   0.900,   0.900,   0.700,   0.700,VeryRough
 Material CTF Summary,CP02 CARPET PAD,  0.0000,         0.000,      0.000,        0.000,  0.2165    
 Material CTF Summary,100MM NORMALWEIGHT CONCRETE FLOOR,  0.1016,         2.310,   2322.000,      832.000,  0.4398E-01
 Material CTF Summary,SEMIHEATED_FLOOR_INSULATION,  0.0000,         0.000,      0.000,        0.000,  0.2994E-01
 CTF,  10,      0.95971884E-08,     -0.13712596E-15,      0.13272751E-08,     -0.34067311E-16
 CTF,   9,     -0.12995372E-02,      0.35973454E-06,     -0.10400662E-01,      0.27673267E-03
 CTF,   8,      0.35722531E-01,     -0.99115113E-05,      0.28053191    ,     -0.76295727E-02
 CTF,   7,     -0.41609284    ,      0.11580244E-03,      -3.2069182    ,      0.89126788E-01
 CTF,   6,       2.6857755    ,     -0.74641270E-03,       20.322447    ,     -0.57695181    
 CTF,   5,      -10.557598    ,      0.29587029E-02,      -78.464409    ,       2.2744490    
 CTF,   4,       26.168716    ,     -0.72879004E-02,       191.12548    ,      -5.6535238    
 CTF,   3,      -40.896647    ,      0.11456980E-01,      -293.70112    ,       8.8599301    
 CTF,   2,       38.914430    ,     -0.10884342E-01,       274.96603    ,      -8.4534906    
 CTF,   1,      -20.512071    ,      0.57378333E-02,      -142.69313    ,       4.4677954    
 CTF,   0,       4.5791263    ,     -0.12797091E-02,       31.381555    
 Construction CTF,WALL_HC01U40,  28,   3,   8,   0.017,      3.441    ,   0.900,   0.900,   0.700,   0.700,MediumSmooth
 Material CTF Summary,CONCRETE HC01U40,  0.0058,         1.272,   1842.000,      837.000,  0.4590E-02
 Material CTF Summary,XPS HC01U40,  0.0060,         0.029,     48.000,     1213.000,  0.2067    
 Material CTF Summary,DRYWALL REGRESSION,  0.0127,         0.160,    800.000,     1088.000,  0.7935E-01
 CTF,   8,      0.41155605E-11,      0.98018910E-14,      0.25476798E-13,     -0.43393115E-15
 CTF,   7,     -0.26288471E-07,      0.31828708E-10,     -0.12130016E-09,      0.15314939E-12
 CTF,   6,      0.44128503E-04,      0.16354065E-06,      0.64406378E-06,     -0.11058427E-08
 CTF,   5,     -0.16108309E-01,      0.93488134E-04,     -0.63860100E-03,      0.16591163E-05
 CTF,   4,       1.8214768    ,      0.75561166E-02,      0.92153523E-01,     -0.39795536E-03
 CTF,   3,      -41.594302    ,      0.10237237    ,      -3.2237415    ,      0.19536502E-01
 CTF,   2,       204.92001    ,      0.24331426    ,       31.445204    ,     -0.30432887    
 CTF,   1,      -314.09901    ,      0.84203869E-01,      -73.305825    ,       1.1576467    
 CTF,   0,       149.40679    ,      0.13627157E-02,       45.431750    
 Construction CTF,WALL_HC01U05,  29,   3,  17,   0.017,     0.2964    ,   0.900,   0.900,   0.700,   0.700,MediumSmooth
 Material CTF Summary,CONCRETE HC01U05,  0.0025,         1.272,   1842.000,      837.000,  0.1949E-02
 Material CTF Summary,XPS HC01U05,  0.0950,         0.029,     48.000,     1213.000,   3.292    
 Material CTF Summary,DRYWALL REGRESSION,  0.0127,         0.160,    800.000,     1088.000,  0.7935E-01
 CTF,  17,     -0.47663656E-10,     -0.77332822E-23,     -0.48465495E-13,      0.77789760E-16
 CTF,  16,      0.10714393E-06,     -0.45304294E-19,      0.47598858E-09,     -0.71247133E-12
 CTF,  15,     -0.27235672E-04,      0.27108537E-16,     -0.63607669E-06,      0.15978132E-08
 CTF,  14,      0.14532571E-02,      0.80765506E-14,      0.94163039E-04,     -0.40462491E-06
 CTF,  13,     -0.35870035E-01,      0.43835189E-13,     -0.37291292E-02,      0.21245652E-04
 CTF,  12,      0.52015376    ,      0.14542899E-11,      0.73952560E-01,     -0.51228000E-03
 CTF,  11,      -4.9505755    ,      0.89011588E-10,     -0.89317743    ,      0.72096024E-02
 CTF,  10,       32.855201    ,      0.20283218E-08,       7.2010013    ,     -0.66123464E-01
 CTF,   9,      -157.53042    ,      0.21471798E-07,      -40.745019    ,      0.41938036    
 CTF,   8,       556.99993    ,      0.10701967E-06,       166.50064    ,      -1.9022421    
 CTF,   7,      -1467.3280    ,      0.26450073E-06,      -498.92710    ,       6.2827227    
 CTF,   6,       2885.2774    ,      0.31190242E-06,       1102.0243    ,      -15.211484    
 CTF,   5,      -4207.7789    ,      0.17976363E-06,      -1786.9243    ,       26.911190    
 CTF,   4,       4477.4384    ,      0.36229267E-07,       2096.1090    ,      -34.298768    
 CTF,   3,      -3371.1646    ,      0.86235228E-08,      -1727.0434    ,       30.587503    
 CTF,   2,       1698.6265    ,     -0.28540128E-08,       946.13743    ,      -18.073153    
 CTF,   1,      -513.10396    ,      0.10219886E-08,      -308.94151    ,       6.3442536    
 CTF,   0,       70.173348    ,     -0.15958793E-09,       45.431757    
 Construction CTF,WALL_HC05U40,  30,   3,  12,   0.017,      3.440    ,   0.900,   0.900,   0.700,   0.700,MediumSmooth
 Material CTF Summary,CONCRETE HC05U40,  0.0589,         1.272,   1842.000,      837.000,  0.4629E-01
 Material CTF Summary,XPS HC05U40,  0.0048,         0.029,     48.000,     1213.000,  0.1650    
 Material CTF Summary,DRYWALL REGRESSION,  0.0127,         0.160,    800.000,     1088.000,  0.7935E-01
 CTF,  12,      0.53715432E-12,     -0.56902775E-15,      0.29042106E-11,     -0.33875190E-14
 CTF,  11,     -0.78167322E-08,     -0.35305110E-15,     -0.33196308E-07,      0.49342177E-10
 CTF,  10,      0.18715824E-04,      0.23864787E-11,      0.48114579E-04,     -0.11816897E-06
 CTF,   9,     -0.49515424E-02,      0.15796836E-08,     -0.71273122E-02,      0.31333567E-04
 CTF,   8,      0.21056629    ,      0.20480173E-06,      0.21449234    ,     -0.13498561E-02
 CTF,   7,      -3.4993160    ,      0.70338293E-05,      -2.8613148    ,      0.22931970E-01
 CTF,   6,       29.860584    ,      0.77746349E-04,       20.734549    ,     -0.20145233    
 CTF,   5,      -146.31116    ,      0.30537955E-03,      -88.923234    ,       1.0228273    
 CTF,   4,       431.41871    ,      0.43458258E-03,       234.46307    ,      -3.1446085    
 CTF,   3,      -772.28563    ,      0.20969493E-03,      -382.33412    ,       5.9012668    
 CTF,   2,       816.89696    ,      0.27995520E-04,       374.36954    ,      -6.5701907    
 CTF,   1,      -467.79836    ,      0.60001225E-06,      -201.08659    ,       3.9702351    
 CTF,   0,       111.51363    ,      0.14278659E-09,       45.431750    
 Construction CTF,WALL_HC05U20,  31,   3,  14,   0.017,      1.367    ,   0.900,   0.900,   0.700,   0.700,MediumSmooth
 Material CTF Summary,CONCRETE HC05U20,  0.0584,         1.272,   1842.000,      837.000,  0.4591E-01
 Material CTF Summary,XPS HC05U20,  0.0175,         0.029,     48.000,     1213.000,  0.6061    
 Material CTF Summary,DRYWALL REGRESSION,  0.0127,         0.160,    800.000,     1088.000,  0.7935E-01
 CTF,  14,      0.79778466E-13,     -0.36563437E-16,      0.31299444E-12,     -0.49577890E-15
 CTF,  13,     -0.26213943E-09,     -0.11854781E-14,     -0.82517538E-09,      0.16350772E-11
 CTF,  12,      0.26665483E-06,      0.66369370E-14,      0.63175088E-06,     -0.16640473E-08
 CTF,  11,     -0.68870080E-04,      0.79176320E-11,     -0.10715242E-03,      0.43063455E-06
 CTF,  10,      0.47669518E-02,      0.12844818E-08,      0.57216835E-02,     -0.30021635E-04
 CTF,   9,     -0.14001983    ,      0.70844414E-07,     -0.13470840    ,      0.89305298E-03
 CTF,   8,       2.1162777    ,      0.14846060E-05,       1.7121750    ,     -0.13756180E-01
 CTF,   7,      -18.534260    ,      0.12721382E-04,      -13.036106    ,      0.12347892    
 CTF,   6,       100.65032    ,      0.46186316E-04,       62.917467    ,     -0.69082780    
 CTF,   5,      -351.05758    ,      0.70749957E-04,      -198.24213    ,       2.4944087    
 CTF,   4,       795.49347    ,      0.43352251E-04,       411.36230    ,      -5.8775726    
 CTF,   3,      -1158.3273    ,      0.93322600E-05,      -555.22183    ,       8.9345762    
 CTF,   2,       1040.6093    ,      0.53024569E-06,       467.39801    ,      -8.4061022    
 CTF,   1,      -522.99942    ,      0.39829919E-08,      -222.19235    ,       4.4347966    
 CTF,   0,       112.18468    ,     -0.29231375E-10,       45.431751    
 Construction CTF,WALL_HC05U05,  32,   3,  18,   0.033,     0.2964    ,   0.900,   0.900,   0.700,   0.700,MediumSmooth
 Material CTF Summary,CONCRETE HC05U05,  0.0556,         1.272,   1842.000,      837.000,  0.4366E-01
 Material CTF Summary,XPS HC05U05,  0.0938,         0.029,     48.000,     1213.000,   3.251    
 Material CTF Summary,DRYWALL REGRESSION,  0.0127,         0.160,    800.000,     1088.000,  0.7935E-01
 CTF,  18,      0.55228891E-11,      0.30816716E-23,      0.11800889E-10,     -0.23114321E-13
 CTF,  17,     -0.69025084E-09,      0.16819544E-18,     -0.11096431E-08,      0.29518925E-11
 CTF,  16,      0.51820893E-07,     -0.87213489E-15,      0.67390029E-07,     -0.22738576E-09
 CTF,  15,     -0.25414657E-05,     -0.25520196E-14,     -0.27893446E-05,      0.11474548E-07
 CTF,  14,      0.85427036E-04,      0.43528620E-12,      0.81171186E-04,     -0.39806977E-06
 CTF,  13,     -0.20260374E-02,      0.23633203E-10,     -0.16928023E-02,      0.97763365E-05
 CTF,  12,      0.34522262E-01,      0.65563527E-09,      0.25617742E-01,     -0.17313029E-03
 CTF,  11,     -0.42737523    ,      0.97525585E-08,     -0.28377313    ,      0.22361648E-02
 CTF,  10,       3.8693194    ,      0.79365650E-07,       2.3155255    ,     -0.21206552E-01
 CTF,   9,      -25.708255    ,      0.35546116E-06,      -13.981761    ,      0.14816203    
 CTF,   8,       125.50013    ,      0.86949736E-06,       62.638163    ,     -0.76327084    
 CTF,   7,      -449.71745    ,      0.11351497E-05,      -208.17612    ,       2.8947712    
 CTF,   6,       1178.3139    ,      0.75735178E-06,       511.22773    ,      -8.0444690    
 CTF,   5,      -2237.9757    ,      0.24009952E-06,      -918.91105    ,       16.226357    
 CTF,   4,       3031.1746    ,      0.31794115E-07,       1187.7255    ,      -23.353717    
 CTF,   3,      -2842.5587    ,      0.15448698E-08,      -1070.1811    ,       23.271298    
 CTF,   2,       1748.7289    ,      0.70168312E-10,       635.94531    ,      -15.204798    
 CTF,   1,      -633.47986    ,      0.28842996E-10,      -223.41873    ,       5.8447893    
 CTF,   0,       102.24780    ,     -0.48394119E-11,       35.076285    
 Construction CTF,WALL_HC10U40,  33,   3,  15,   0.033,      3.443    ,   0.900,   0.900,   0.700,   0.700,MediumSmooth
 Material CTF Summary,CONCRETE HC10U40,  0.1252,         1.272,   1842.000,      837.000,  0.9842E-01
 Material CTF Summary,XPS HC10U40,  0.0032,         0.029,     48.000,     1213.000,  0.1127    
 Material CTF Summary,DRYWALL REGRESSION,  0.0127,         0.160,    800.000,     1088.000,  0.7935E-01
 CTF,  15,     -0.65784073E-11,      0.13362790E-16,     -0.69192679E-10,      0.35773094E-13
 CTF,  14,      0.49127225E-08,     -0.49778825E-14,      0.14783250E-07,     -0.26779378E-10
 CTF,  13,     -0.68732717E-06,     -0.23583200E-14,     -0.13225462E-05,      0.38055625E-08
 CTF,  12,      0.44358716E-04,      0.30829466E-11,      0.64716416E-04,     -0.25053713E-06
 CTF,  11,     -0.16320483E-02,      0.43740741E-09,     -0.19237608E-02,      0.94439533E-05
 CTF,  10,      0.37382921E-01,      0.23428346E-07,      0.36600232E-01,     -0.22273641E-03
 CTF,   9,     -0.55621042    ,      0.53211127E-06,     -0.45913001    ,      0.34322212E-02
 CTF,   8,       5.4881589    ,      0.54636302E-05,       3.8714041    ,     -0.35304149E-01
 CTF,   7,      -36.259760    ,      0.26095279E-04,      -22.233192    ,      0.24482977    
 CTF,   6,       161.08705    ,      0.57878451E-04,       87.617829    ,      -1.1489300    
 CTF,   5,      -481.31018    ,      0.57626416E-04,      -237.04695    ,       3.6444562    
 CTF,   4,       960.90636    ,      0.23787558E-04,       436.30100    ,      -7.7504742    
 CTF,   3,      -1256.7789    ,      0.34967481E-05,      -533.69654    ,       10.818239    
 CTF,   2,       1029.3484    ,      0.12177131E-06,       413.30895    ,      -9.4625547    
 CTF,   1,      -477.46175    ,      0.51352772E-08,      -182.77385    ,       4.6864687    
 CTF,   0,       95.501282    ,     -0.96916540E-09,       35.075917    
 Construction CTF,WALL_HC10U20,  34,   3,  16,   0.033,      1.366    ,   0.900,   0.900,   0.700,   0.700,MediumSmooth
 Material CTF Summary,CONCRETE HC10U20,  0.1247,         1.272,   1842.000,      837.000,  0.9804E-01
 Material CTF Summary,XPS HC10U20,  0.0160,         0.029,     48.000,     1213.000,  0.5544    
 Material CTF Summary,DRYWALL REGRESSION,  0.0127,         0.160,    800.000,     1088.000,  0.7935E-01
 CTF,  16,      0.11732134E-11,      0.94460336E-18,      0.97023876E-11,     -0.63943288E-14
 CTF,  15,     -0.67309717E-09,      0.24976606E-16,     -0.20526981E-08,      0.36431873E-11
 CTF,  14,      0.96536130E-07,      0.37976589E-14,      0.19134453E-06,     -0.53009937E-09
 CTF,  13,     -0.66623997E-05,      0.29054121E-12,     -0.10045781E-04,      0.37264145E-07
 CTF,  12,      0.26878714E-03,      0.36174586E-10,      0.32905129E-03,     -0.15370402E-05
 CTF,  11,     -0.69125921E-02,      0.19475839E-08,     -0.70912150E-02,      0.40579701E-04
 CTF,  10,      0.11850557    ,      0.47916953E-07,      0.10368885    ,     -0.71745642E-03
 CTF,   9,      -1.3870571    ,      0.56677795E-06,      -1.0483170    ,      0.87050525E-02
 CTF,   8,       11.219292    ,      0.33026230E-05,       7.4128315    ,     -0.73397457E-01
 CTF,   7,      -63.002981    ,      0.94953611E-05,      -36.885338    ,      0.43212059    
 CTF,   6,       245.45381    ,      0.13169649E-04,       129.29902    ,      -1.7746138    
 CTF,   5,      -659.74243    ,      0.83558081E-05,      -317.75711    ,       5.0510022    
 CTF,   4,       1208.4434    ,      0.21892174E-05,       540.17307    ,      -9.8289478    
 CTF,   3,      -1471.8211    ,      0.19911212E-06,      -618.31321    ,       12.741557    
 CTF,   2,       1135.2728    ,      0.20236032E-08,       452.65408    ,      -10.467769    
 CTF,   1,      -500.26951    ,      0.96858459E-09,      -190.70776    ,       4.9119944    
 CTF,   0,       95.721973    ,     -0.19445531E-09,       35.075848    
 Construction CTF,WALL_HC10U05,  35,   3,  18,   0.050,     0.2965    ,   0.900,   0.900,   0.700,   0.700,MediumSmooth
 Material CTF Summary,CONCRETE HC10U05,  0.1219,         1.272,   1842.000,      837.000,  0.9578E-01
 Material CTF Summary,XPS HC10U05,  0.0922,         0.029,     48.000,     1213.000,   3.198    
 Material CTF Summary,DRYWALL REGRESSION,  0.0127,         0.160,    800.000,     1088.000,  0.7935E-01
 CTF,  18,      0.65556170E-10,      0.73284626E-23,      0.11051974E-09,     -0.26391874E-12
 CTF,  17,     -0.47691543E-08,     -0.17762635E-16,     -0.68976517E-08,      0.19851450E-10
 CTF,  16,      0.25172925E-06,      0.52577725E-14,      0.31320432E-06,     -0.10870561E-08
 CTF,  15,     -0.96975070E-05,      0.32239783E-12,     -0.10382851E-04,      0.43613543E-07
 CTF,  14,      0.27324649E-03,      0.11863003E-10,      0.25202328E-03,     -0.12853224E-05
 CTF,  13,     -0.56337551E-02,      0.25139825E-09,     -0.44943259E-02,      0.27843623E-04
 CTF,  12,      0.84999326E-01,      0.31247739E-08,      0.59127071E-01,     -0.44341044E-03
 CTF,  11,     -0.93908167    ,      0.22865798E-07,     -0.57654513    ,      0.51931866E-02
 CTF,  10,       7.6105450    ,      0.98010485E-07,       4.1856988    ,     -0.44782385E-01
 CTF,   9,      -45.355127    ,      0.24287861E-06,      -22.705234    ,      0.28479802    
 CTF,   8,       199.22275    ,      0.33980535E-06,       92.182024    ,      -1.3375565    
 CTF,   7,      -645.50130    ,      0.25870039E-06,      -279.82748    ,       4.6384246    
 CTF,   6,       1539.0697    ,      0.10058530E-06,       632.08707    ,      -11.839012    
 CTF,   5,      -2679.6471    ,      0.18952280E-07,      -1051.6882    ,       22.055703    
 CTF,   4,       3352.6393    ,      0.67290344E-09,       1265.5673    ,      -29.499246    
 CTF,   3,      -2926.1778    ,      0.71903196E-09,      -1067.3128    ,       27.488792    
 CTF,   2,       1687.2845    ,     -0.42139332E-09,       596.57488    ,      -16.897734    
 CTF,   1,      -576.58236    ,      0.15243492E-09,      -198.04872    ,       6.1458338    
 CTF,   0,       88.296293    ,     -0.24640766E-10,       29.507083    
 Construction CTF,WALL_HC20U40,  36,   3,  18,   0.067,      3.440    ,   0.900,   0.900,   0.700,   0.700,MediumSmooth
 Material CTF Summary,CONCRETE HC20U40,  0.2579,         1.272,   1842.000,      837.000,  0.2027    
 Material CTF Summary,XPS HC20U40,  0.0003,         0.029,     48.000,     1213.000,  0.8669E-02
 Material CTF Summary,DRYWALL REGRESSION,  0.0127,         0.160,    800.000,     1088.000,  0.7935E-01
 CTF,  18,      0.39673152E-11,      0.28631166E-20,      0.13625809E-10,     -0.25847273E-13
 CTF,  17,     -0.42240687E-09,     -0.19480091E-16,     -0.10790151E-08,      0.27897259E-11
 CTF,  16,      0.29210299E-07,     -0.76372593E-14,      0.58525605E-07,     -0.19660761E-09
 CTF,  15,     -0.13828256E-05,      0.31250659E-13,     -0.22500327E-05,      0.95134920E-08
 CTF,  14,      0.46140238E-04,      0.22475731E-11,      0.62467828E-04,     -0.32555617E-06
 CTF,  13,     -0.11040479E-02,      0.10920130E-09,     -0.12665843E-02,      0.80192260E-05
 CTF,  12,      0.19146522E-01,      0.27198807E-08,      0.18883642E-01,     -0.14374394E-03
 CTF,  11,     -0.24225217    ,      0.37678878E-07,     -0.20790064    ,      0.18878334E-02
 CTF,  10,       2.2455833    ,      0.28410148E-06,       1.6949271    ,     -0.18242467E-01
 CTF,   9,      -15.286023    ,      0.12174248E-05,      -10.250549    ,      0.12999123    
 CTF,   8,       76.459533    ,      0.27452783E-05,       46.018312    ,     -0.68325588    
 CTF,   7,      -280.59630    ,      0.36964196E-05,      -153.17599    ,       2.6436812    
 CTF,   6,       752.06301    ,      0.16016824E-05,       376.42010    ,      -7.4904266    
 CTF,   5,      -1458.4706    ,      0.19176531E-05,      -676.63375    ,       15.384746    
 CTF,   4,       2012.0733    ,     -0.17431988E-05,       874.46956    ,      -22.503542    
 CTF,   3,      -1916.4158    ,      0.18446385E-05,      -788.11091    ,       22.733653    
 CTF,   2,       1193.7314    ,     -0.12126270E-05,       468.81215    ,      -15.015696    
 CTF,   1,      -436.47164    ,      0.46825462E-06,      -165.05647    ,       5.8173365    
 CTF,   0,       70.891793    ,     -0.80185496E-07,       26.002861    
 Construction CTF,WALL_HC20U20,  37,   3,  17,   0.083,      1.369    ,   0.900,   0.900,   0.700,   0.700,MediumSmooth
 Material CTF Summary,CONCRETE HC20U20,  0.2574,         1.272,   1842.000,      837.000,  0.2023    
 Material CTF Summary,XPS HC20U20,  0.0130,         0.029,     48.000,     1213.000,  0.4490    
 Material CTF Summary,DRYWALL REGRESSION,  0.0127,         0.160,    800.000,     1088.000,  0.7935E-01
 CTF,  17,     -0.17069226E-11,     -0.58287381E-20,     -0.68042668E-11,      0.93650224E-14
 CTF,  16,      0.23598393E-09,      0.14018843E-16,      0.69683631E-09,     -0.13042098E-11
 CTF,  15,     -0.22041229E-07,      0.66367029E-14,     -0.48712904E-07,      0.12548300E-09
 CTF,  14,      0.13947916E-05,      0.42128392E-12,      0.23396371E-05,     -0.82255732E-08
 CTF,  13,     -0.59961875E-04,      0.25829214E-10,     -0.77738467E-04,      0.36862866E-06
 CTF,  12,      0.17509202E-02,      0.81672649E-09,      0.17981340E-02,     -0.11298399E-04
 CTF,  11,     -0.34746085E-01,      0.13949315E-07,     -0.29149108E-01,      0.23698259E-03
 CTF,  10,      0.47023414    ,      0.12973160E-06,      0.33341933    ,     -0.34118785E-02
 CTF,   9,      -4.3706603    ,      0.65616978E-06,      -2.7067950    ,      0.33918083E-01
 CTF,   8,       28.159162    ,      0.17824454E-05,       15.660950    ,     -0.23464385    
 CTF,   7,      -126.87734    ,      0.25351822E-05,      -64.702774    ,       1.1379573    
 CTF,   6,       402.01675    ,      0.17971452E-05,       190.67892    ,      -3.8853259    
 CTF,   5,      -895.15005    ,      0.59866393E-06,      -398.51578    ,       9.3235162    
 CTF,   4,       1386.4403    ,      0.66522449E-07,       582.73268    ,      -15.553242    
 CTF,   3,      -1456.9312    ,      0.17122965E-07,      -580.40385    ,       17.582381    
 CTF,   2,       987.57824    ,     -0.99758046E-08,       374.00912    ,      -12.800012    
 CTF,   1,      -388.61720    ,      0.42059060E-08,      -140.27434    ,       5.3986318    
 CTF,   0,       67.314763    ,     -0.77620453E-09,       23.215895    
 Construction CTF,WALL_HC20U05,  38,   3,  18,   0.100,     0.2965    ,   0.900,   0.900,   0.700,   0.700,MediumSmooth
 Material CTF Summary,CONCRETE HC20U05,  0.2545,         1.272,   1842.000,      837.000,  0.2000    
 Material CTF Summary,XPS HC20U05,  0.0892,         0.029,     48.000,     1213.000,   3.093    
 Material CTF Summary,DRYWALL REGRESSION,  0.0127,         0.160,    800.000,     1088.000,  0.7935E-01
 CTF,  18,      0.52020693E-10,     -0.43268699E-20,      0.10855407E-09,     -0.24026461E-12
 CTF,  17,     -0.44244409E-08,      0.16253787E-14,     -0.71926400E-08,      0.21448342E-10
 CTF,  16,      0.26352485E-06,      0.72872880E-13,      0.33956317E-06,     -0.13476994E-08
 CTF,  15,     -0.10992362E-04,      0.24334837E-11,     -0.11477706E-04,      0.59607246E-07
 CTF,  14,      0.32206423E-03,      0.52604827E-10,      0.27968177E-03,     -0.18603633E-05
 CTF,  13,     -0.66670902E-02,      0.69046945E-09,     -0.49502067E-02,      0.41190585E-04
 CTF,  12,      0.98314281E-01,      0.54869337E-08,      0.64114562E-01,     -0.65181034E-03
 CTF,  11,      -1.0427860    ,      0.26242169E-07,     -0.61177166    ,      0.74367785E-02
 CTF,  10,       8.0359704    ,      0.74584855E-07,       4.3249693    ,     -0.61738047E-01
 CTF,   9,      -45.399853    ,      0.12356842E-06,      -22.750201    ,      0.37598740    
 CTF,   8,       189.30161    ,      0.11527095E-06,       89.254797    ,      -1.6898693    
 CTF,   7,      -584.47355    ,      0.58970206E-07,      -261.12149    ,       5.6205229    
 CTF,   6,       1334.4653    ,      0.12829554E-07,       567.47451    ,      -13.809537    
 CTF,   5,      -2236.1337    ,      0.50596996E-08,      -907.68057    ,       24.867710    
 CTF,   4,       2705.2359    ,     -0.43230796E-08,       1050.0983    ,      -32.278204    
 CTF,   3,      -2292.3620    ,      0.39797111E-08,      -852.01729    ,       29.293655    
 CTF,   2,       1287.7151    ,     -0.23834947E-08,       458.73472    ,      -17.589683    
 CTF,   1,      -429.89858    ,      0.84650555E-09,      -146.91999    ,       6.2643295    
 CTF,   0,       64.464586    ,     -0.13470327E-09,       21.154642    
 Construction CTF,INTERIOR FURNISHINGS,  41,   1,  17,   0.100,     0.8000    ,   0.900,   0.900,   0.700,   0.700,MediumSmooth
 Material CTF Summary,STDWOOD 6IN,  0.1500,         0.120,    540.000,     1210.000,   1.250    
 CTF,  17,     -0.90079007E-12,      0.10053588E-19,     -0.90079705E-12,      0.36041705E-13
 CTF,  16,      0.12994501E-09,      0.14362381E-15,      0.12994500E-09,     -0.52870379E-11
 CTF,  15,     -0.10704352E-07,      0.35215962E-15,     -0.10704352E-07,      0.44428442E-09
 CTF,  14,      0.56022885E-06,      0.75971587E-14,      0.56022885E-06,     -0.23797974E-07
 CTF,  13,     -0.19623129E-04,      0.11875298E-11,     -0.19623129E-04,      0.85638647E-06
 CTF,  12,      0.47329417E-03,      0.84635786E-10,      0.47329417E-03,     -0.21312361E-04
 CTF,  11,     -0.79913137E-02,      0.28374579E-08,     -0.79913137E-02,      0.37305091E-03
 CTF,  10,      0.95413482E-01,      0.47432590E-07,      0.95413482E-01,     -0.46404581E-02
 CTF,   9,     -0.81085452    ,      0.40799225E-06,     -0.81085452    ,      0.41289246E-01
 CTF,   8,       4.9254726    ,      0.18261187E-05,       4.9254726    ,     -0.26380912    
 CTF,   7,      -21.427375    ,      0.42223363E-05,      -21.427375    ,       1.2120212    
 CTF,   6,       66.676295    ,      0.49043847E-05,       66.676295    ,      -3.9960028    
 CTF,   5,      -147.48837    ,      0.27066883E-05,      -147.48837    ,       9.3877258    
 CTF,   4,       228.64255    ,      0.64260075E-06,       228.64255    ,      -15.479788    
[...]
HeatTransfer_Surface,SW WALL (T.N13.I32),Wall,,CTF - ConductionTransferFunction,,6.299,3.242,,14.19,14.19,14.19,225.00,90.00,5.17,2.74,0.00,iz-SW WALL (T.N13.I32),Other/Same Surface Int Conv,ASHRAETARP,NoSun,NoWind,0.50,0.50,0.50,0.50,4
HeatTransfer_Surface,SOUTH WALL (T.N13.I33),Wall,,CTF - ConductionTransferFunction,,6.299,3.242,,63.54,63.54,63.54,180.00,90.00,23.16,2.74,0.00,iz-SOUTH WALL (T.N13.I33),Other/Same Surface Int Conv,ASHRAETARP,NoSun,NoWind,0.50,0.50,0.50,0.50,4
HeatTransfer_Surface,iz-NW WALL (T.E12.I28),Wall,,CTF - ConductionTransferFunction,,6.299,3.242,,14.19,14.19,14.19,135.00,90.00,5.17,2.74,0.00,NW WALL (T.E12.I28),Other/Same Surface Int Conv,ASHRAETARP,NoSun,NoWind,0.50,0.50,0.50,0.50,4
HeatTransfer_Surface,FLR (T.N13.I31),Floor,,CTF - ConductionTransferFunction,,3.839,1.986,,98.10,98.10,98.10,0.00,180.00,23.16,5.17,0.00,iz-FLR (T.N13.I31),Other/Same Surface Int Conv,ASHRAETARP,NoSun,NoWind,1.00,0.00,1.00,0.00,4
HeatTransfer_Surface,CEILING (T.N13.I34),Roof,,CTF - ConductionTransferFunction,,4.488,2.432,,98.10,98.10,98.10,180.00,0.00,23.16,5.17,0.00,iz-CEILING (T.N13.I34),Other/Same Surface Int Conv,ASHRAETARP,NoSun,NoWind,0.00,1.00,0.00,1.00,4
HeatTransfer_Surface,NORTH PERIM SPC TN13 INTERNAL MASS,Internal Mass,,CTF - ConductionTransferFunction,,0.800,0.800,,1176.00,1176.00,1176.00,0.00,90.00,1176.00,1.00,0.00,NORTH PERIM SPC TN13 INTERNAL MASS,Other/Same Surface Int Conv,ASHRAETARP,NoSun,NoWind,0.00,0.50,1.00,0.00,0
Zone_Surfaces,WEST PERIM SPC TW14,   15
HeatTransfer_Surface,WEST WALL (T.W14.E12),Wall,,CTF - ConductionTransferFunction,,0.779,0.698,,61.31,83.60,61.31,270.00,90.00,30.48,2.74,0.00,ExternalEnvironment,ASHRAETARP,ASHRAETARP,SunExposed,WindExposed,0.50,0.50,0.50,0.50,4
HeatTransfer_Surface,WEST WIN - LEFT (T.W14.E12.W8),Window,WEST WALL (T.W14.E12),Window5 Detailed Fenestration,,N/A,3.244,No,2.79,2.79,2.79,270.00,90.00,1.83,1.52,0.00,ExternalEnvironment,ASHRAETARP,ASHRAETARP,SunExposed,WindExposed,0.50,0.50,0.50,0.50,4
HeatTransfer_Surface,WEST WIN - LEFT (T.W14.E12.W1),Window,WEST WALL (T.W14.E12),Window5 Detailed Fenestration,,N/A,3.244,No,2.79,2.79,2.79,270.00,90.00,1.83,1.52,0.00,ExternalEnvironment,ASHRAETARP,ASHRAETARP,SunExposed,WindExposed,0.50,0.50,0.50,0.50,4
HeatTransfer_Surface,WEST WIN - LEFT (T.W14.E12.W2),Window,WEST WALL (T.W14.E12),Window5 Detailed Fenestration,,N/A,3.244,No,2.79,2.79,2.79,270.00,90.00,1.83,1.52,0.00,ExternalEnvironment,ASHRAETARP,ASHRAETARP,SunExposed,WindExposed,0.50,0.50,0.50,0.50,4
HeatTransfer_Surface,WEST WIN - LEFT (T.W14.E12.W3),Window,WEST WALL (T.W14.E12),Window5 Detailed Fenestration,,N/A,3.244,No,2.79,2.79,2.79,270.00,90.00,1.83,1.52,0.00,ExternalEnvironment,ASHRAETARP,ASHRAETARP,SunExposed,WindExposed,0.50,0.50,0.50,0.50,4
HeatTransfer_Surface,WEST WIN - LEFT (T.W14.E12.W4),Window,WEST WALL (T.W14.E12),Window5 Detailed Fenestration,,N/A,3.244,No,2.79,2.79,2.79,270.00,90.00,1.83,1.52,0.00,ExternalEnvironment,ASHRAETARP,ASHRAETARP,SunExposed,WindExposed,0.50,0.50,0.50,0.50,4
HeatTransfer_Surface,WEST WIN - LEFT (T.W14.E12.W5),Window,WEST WALL (T.W14.E12),Window5 Detailed Fenestration,,N/A,3.244,No,2.79,2.79,2.79,270.00,90.00,1.83,1.52,0.00,ExternalEnvironment,ASHRAETARP,ASHRAETARP,SunExposed,WindExposed,0.50,0.50,0.50,0.50,4
HeatTransfer_Surface,WEST WIN - LEFT (T.W14.E12.W6),Window,WEST WALL (T.W14.E12),Window5 Detailed Fenestration,,N/A,3.244,No,2.79,2.79,2.79,270.00,90.00,1.83,1.52,0.00,ExternalEnvironment,ASHRAETARP,ASHRAETARP,SunExposed,WindExposed,0.50,0.50,0.50,0.50,4
HeatTransfer_Surface,WEST WIN - LEFT (T.W14.E12.W7),Window,WEST WALL (T.W14.E12),Window5 Detailed Fenestration,,N/A,3.244,No,2.79,2.79,2.79,270.00,90.00,1.83,1.52,0.00,ExternalEnvironment,ASHRAETARP,ASHRAETARP,SunExposed,WindExposed,0.50,0.50,0.50,0.50,4
HeatTransfer_Surface,EAST WALL (T.W14.I36),Wall,,CTF - ConductionTransferFunction,,6.299,3.242,,63.54,63.54,63.54,90.00,90.00,23.16,2.74,0.00,iz-EAST WALL (T.W14.I36),Other/Same Surface Int Conv,ASHRAETARP,NoSun,NoWind,0.50,0.50,0.50,0.50,4
HeatTransfer_Surface,iz-NW WALL (T.S11.I25),Wall,,CTF - ConductionTransferFunction,,6.299,3.242,,14.19,14.19,14.19,135.00,90.00,5.17,2.74,0.00,NW WALL (T.S11.I25),Other/Same Surface Int Conv,ASHRAETARP,NoSun,NoWind,0.50,0.50,0.50,0.50,4
HeatTransfer_Surface,iz-SW WALL (T.N13.I32),Wall,,CTF - ConductionTransferFunction,,6.299,3.242,,14.19,14.19,14.19,45.00,90.00,5.17,2.74,0.00,SW WALL (T.N13.I32),Other/Same Surface Int Conv,ASHRAETARP,NoSun,NoWind,0.50,0.50,0.50,0.50,4
HeatTransfer_Surface,FLR (T.W14.I35),Floor,,CTF - ConductionTransferFunction,,3.839,1.986,,98.10,98.10,98.10,270.00,180.00,23.16,5.17,0.00,iz-FLR (T.W14.I35),Other/Same Surface Int Conv,ASHRAETARP,NoSun,NoWind,1.00,0.00,1.00,0.00,4
HeatTransfer_Surface,CEILING (T.W14.I37),Roof,,CTF - ConductionTransferFunction,,4.488,2.432,,98.10,98.10,98.10,135.00,0.00,5.17,30.48,0.00,iz-CEILING (T.W14.I37),Other/Same Surface Int Conv,ASHRAETARP,NoSun,NoWind,0.00,1.00,0.00,1.00,4
HeatTransfer_Surface,WEST PERIM SPC TW14 INTERNAL MASS,Internal Mass,,CTF - ConductionTransferFunction,,0.800,0.800,,1176.00,1176.00,1176.00,0.00,90.00,1176.00,1.00,0.00,WEST PERIM SPC TW14 INTERNAL MASS,Other/Same Surface Int Conv,ASHRAETARP,NoSun,NoWind,0.00,0.50,1.00,0.00,0
Zone_Surfaces,CORE SPC TC15,    7
HeatTransfer_Surface,iz-NORTH WALL (T.S11.I24),Wall,,CTF - ConductionTransferFunction,,6.299,3.242,,63.54,63.54,63.54,180.00,90.00,23.16,2.74,0.00,NORTH WALL (T.S11.I24),Other/Same Surface Int Conv,ASHRAETARP,NoSun,NoWind,0.50,0.50,0.50,0.50,4
HeatTransfer_Surface,iz-WEST WALL (T.E12.I29),Wall,,CTF - ConductionTransferFunction,,6.299,3.242,,63.54,63.54,63.54,90.00,90.00,23.16,2.74,0.00,WEST WALL (T.E12.I29),Other/Same Surface Int Conv,ASHRAETARP,NoSun,NoWind,0.50,0.50,0.50,0.50,4
HeatTransfer_Surface,iz-SOUTH WALL (T.N13.I33),Wall,,CTF - ConductionTransferFunction,,6.299,3.242,,63.54,63.54,63.54,0.00,90.00,23.16,2.74,0.00,SOUTH WALL (T.N13.I33),Other/Same Surface Int Conv,ASHRAETARP,NoSun,NoWind,0.50,0.50,0.50,0.50,4
HeatTransfer_Surface,iz-EAST WALL (T.W14.I36),Wall,,CTF - ConductionTransferFunction,,6.299,3.242,,63.54,63.54,63.54,270.00,90.00,23.16,2.74,0.00,EAST WALL (T.W14.I36),Other/Same Surface Int Conv,ASHRAETARP,NoSun,NoWind,0.50,0.50,0.50,0.50,4
HeatTransfer_Surface,FLR (T.C15.I38),Floor,,CTF - ConductionTransferFunction,,3.839,1.986,,536.56,536.56,536.56,0.00,180.00,23.16,23.16,0.00,iz-FLR (T.C15.I38),Other/Same Surface Int Conv,ASHRAETARP,NoSun,NoWind,1.00,0.00,1.00,0.00,4
HeatTransfer_Surface,CEILING (T.C15.I39),Roof,,CTF - ConductionTransferFunction,,4.488,2.432,,536.56,536.56,536.56,180.00,0.00,23.16,23.16,0.00,iz-CEILING (T.C15.I39),Other/Same Surface Int Conv,ASHRAETARP,NoSun,NoWind,0.00,1.00,0.00,1.00,4
HeatTransfer_Surface,CORE SPC TC15 INTERNAL MASS,Internal Mass,,CTF - ConductionTransferFunction,,0.800,0.800,,6438.00,6438.00,6438.00,0.00,90.00,6438.00,1.00,0.00,CORE SPC TC15 INTERNAL MASS,Other/Same Surface Int Conv,ASHRAETARP,NoSun,NoWind,0.00,0.50,1.00,0.00,0
Zone_Surfaces,SOUTH PERIM PLNM TS16,    6
HeatTransfer_Surface,SOUTH WALL (T.S16.E13),Wall,,CTF - ConductionTransferFunction,,0.779,0.698,,27.87,27.87,27.87,180.00,90.00,30.48,0.91,0.00,ExternalEnvironment,ASHRAETARP,ASHRAETARP,SunExposed,WindExposed,0.50,0.50,0.50,0.50,4
HeatTransfer_Surface,NE WALL (T.S16.I40),Wall,,CTF - ConductionTransferFunction,,6.299,3.242,,4.73,4.73,4.73,45.00,90.00,5.17,0.91,0.00,iz-NE WALL (T.S16.I40),Other/Same Surface Int Conv,ASHRAETARP,NoSun,NoWind,0.50,0.50,0.50,0.50,4
HeatTransfer_Surface,NORTH WALL (T.S16.I41),Wall,,CTF - ConductionTransferFunction,,6.299,3.242,,21.18,21.18,21.18,0.00,90.00,23.16,0.91,0.00,iz-NORTH WALL (T.S16.I41),Other/Same Surface Int Conv,ASHRAETARP,NoSun,NoWind,0.50,0.50,0.50,0.50,4
HeatTransfer_Surface,NW WALL (T.S16.I42),Wall,,CTF - ConductionTransferFunction,,6.299,3.242,,4.73,4.73,4.73,315.00,90.00,5.17,0.91,0.00,iz-NW WALL (T.S16.I42),Other/Same Surface Int Conv,ASHRAETARP,NoSun,NoWind,0.50,0.50,0.50,0.50,4
HeatTransfer_Surface,iz-CEILING (T.S11.I26),Floor,,CTF - ConductionTransferFunction,,4.488,2.147,,98.10,98.10,98.10,225.00,180.00,5.17,23.16,0.00,CEILING (T.S11.I26),Other/Same Surface Int Conv,ASHRAETARP,NoSun,NoWind,1.00,0.00,1.00,0.00,4
HeatTransfer_Surface,ROOF (T.S16.E14),Roof,,CTF - ConductionTransferFunction,,0.377,0.352,,98.10,98.10,98.10,45.00,0.00,5.17,30.48,0.00,ExternalEnvironment,ASHRAETARP,ASHRAETARP,SunExposed,WindExposed,0.00,1.00,0.00,1.00,4
Zone_Surfaces,EAST PERIM PLNM TE17,    6
HeatTransfer_Surface,EAST WALL (T.E17.E15),Wall,,CTF - ConductionTransferFunction,,0.779,0.698,,27.87,27.87,27.87,90.00,90.00,30.48,0.91,0.00,ExternalEnvironment,ASHRAETARP,ASHRAETARP,SunExposed,WindExposed,0.50,0.50,0.50,0.50,4
HeatTransfer_Surface,NW WALL (T.E17.I43),Wall,,CTF - ConductionTransferFunction,,6.299,3.242,,4.73,4.73,4.73,315.00,90.00,5.17,0.91,0.00,iz-NW WALL (T.E17.I43),Other/Same Surface Int Conv,ASHRAETARP,NoSun,NoWind,0.50,0.50,0.50,0.50,4
HeatTransfer_Surface,WEST WALL (T.E17.I44),Wall,,CTF - ConductionTransferFunction,,6.299,3.242,,21.18,21.18,21.18,270.00,90.00,23.16,0.91,0.00,iz-WEST WALL (T.E17.I44),Other/Same Surface Int Conv,ASHRAETARP,NoSun,NoWind,0.50,0.50,0.50,0.50,4
HeatTransfer_Surface,iz-NE WALL (T.S16.I40),Wall,,CTF - ConductionTransferFunction,,6.299,3.242,,4.73,4.73,4.73,225.00,90.00,5.17,0.91,0.00,NE WALL (T.S16.I40),Other/Same Surface Int Conv,ASHRAETARP,NoSun,NoWind,0.50,0.50,0.50,0.50,4
HeatTransfer_Surface,iz-CEILING (T.E12.I30),Floor,,CTF - ConductionTransferFunction,,4.488,2.147,,98.10,98.10,98.10,90.00,180.00,23.16,5.17,0.00,CEILING (T.E12.I30),Other/Same Surface Int Conv,ASHRAETARP,NoSun,NoWind,1.00,0.00,1.00,0.00,4
HeatTransfer_Surface,ROOF (T.E17.E16),Roof,,CTF - ConductionTransferFunction,,0.377,0.352,,98.10,98.10,98.10,270.00,0.00,23.16,5.17,0.00,ExternalEnvironment,ASHRAETARP,ASHRAETARP,SunExposed,WindExposed,0.00,1.00,0.00,1.00,4
Zone_Surfaces,NORTH PERIM PLNM TN18,    6
HeatTransfer_Surface,NORTH WALL (T.N18.E17),Wall,,CTF - ConductionTransferFunction,,0.779,0.698,,27.87,27.87,27.87,0.00,90.00,30.48,0.91,0.00,ExternalEnvironment,ASHRAETARP,ASHRAETARP,SunExposed,WindExposed,0.50,0.50,0.50,0.50,4
HeatTransfer_Surface,SW WALL (T.N18.I45),Wall,,CTF - ConductionTransferFunction,,6.299,3.242,,4.73,4.73,4.73,225.00,90.00,5.17,0.91,0.00,iz-SW WALL (T.N18.I45),Other/Same Surface Int Conv,ASHRAETARP,NoSun,NoWind,0.50,0.50,0.50,0.50,4
HeatTransfer_Surface,SOUTH WALL (T.N18.I46),Wall,,CTF - ConductionTransferFunction,,6.299,3.242,,21.18,21.18,21.18,180.00,90.00,23.16,0.91,0.00,iz-SOUTH WALL (T.N18.I46),Other/Same Surface Int Conv,ASHRAETARP,NoSun,NoWind,0.50,0.50,0.50,0.50,4
HeatTransfer_Surface,iz-NW WALL (T.E17.I43),Wall,,CTF - ConductionTransferFunction,,6.299,3.242,,4.73,4.73,4.73,135.00,90.00,5.17,0.91,0.00,NW WALL (T.E17.I43),Other/Same Surface Int Conv,ASHRAETARP,NoSun,NoWind,0.50,0.50,0.50,0.50,4
HeatTransfer_Surface,iz-CEILING (T.N13.I34),Floor,,CTF - ConductionTransferFunction,,4.488,2.147,,98.10,98.10,98.10,0.00,180.00,23.16,5.17,0.00,CEILING (T.N13.I34),Other/Same Surface Int Conv,ASHRAETARP,NoSun,NoWind,1.00,0.00,1.00,0.00,4
HeatTransfer_Surface,ROOF (T.N18.E18),Roof,,CTF - ConductionTransferFunction,,0.377,0.352,,98.10,98.10,98.10,180.00,0.00,23.16,5.17,0.00,ExternalEnvironment,ASHRAETARP,ASHRAETARP,SunExposed,WindExposed,0.00,1.00,0.00,1.00,4
Zone_Surfaces,WEST PERIM PLNM TW19,    6
HeatTransfer_Surface,WEST WALL (T.W19.E19),Wall,,CTF - ConductionTransferFunction,,0.779,0.698,,27.87,27.87,27.87,270.00,90.00,30.48,0.91,0.00,ExternalEnvironment,ASHRAETARP,ASHRAETARP,SunExposed,WindExposed,0.50,0.50,0.50,0.50,4
HeatTransfer_Surface,EAST WALL (T.W19.I47),Wall,,CTF - ConductionTransferFunction,,6.299,3.242,,21.18,21.18,21.18,90.00,90.00,23.16,0.91,0.00,iz-EAST WALL (T.W19.I47),Other/Same Surface Int Conv,ASHRAETARP,NoSun,NoWind,0.50,0.50,0.50,0.50,4
HeatTransfer_Surface,iz-NW WALL (T.S16.I42),Wall,,CTF - ConductionTransferFunction,,6.299,3.242,,4.73,4.73,4.73,135.00,90.00,5.17,0.91,0.00,NW WALL (T.S16.I42),Other/Same Surface Int Conv,ASHRAETARP,NoSun,NoWind,0.50,0.50,0.50,0.50,4
HeatTransfer_Surface,iz-SW WALL (T.N18.I45),Wall,,CTF - ConductionTransferFunction,,6.299,3.242,,4.73,4.73,4.73,45.00,90.00,5.17,0.91,0.00,SW WALL (T.N18.I45),Other/Same Surface Int Conv,ASHRAETARP,NoSun,NoWind,0.50,0.50,0.50,0.50,4
HeatTransfer_Surface,iz-CEILING (T.W14.I37),Floor,,CTF - ConductionTransferFunction,,4.488,2.147,,98.10,98.10,98.10,315.00,180.00,5.17,23.16,0.00,CEILING (T.W14.I37),Other/Same Surface Int Conv,ASHRAETARP,NoSun,NoWind,1.00,0.00,1.00,0.00,4
HeatTransfer_Surface,ROOF (T.W19.E20),Roof,,CTF - ConductionTransferFunction,,0.377,0.352,,98.10,98.10,98.10,135.00,0.00,5.17,30.48,0.00,ExternalEnvironment,ASHRAETARP,ASHRAETARP,SunExposed,WindExposed,0.00,1.00,0.00,1.00,4
Zone_Surfaces,CORE PLNM TC20,    6
HeatTransfer_Surface,iz-NORTH WALL (T.S16.I41),Wall,,CTF - ConductionTransferFunction,,6.299,3.242,,21.18,21.18,21.18,180.00,90.00,23.16,0.91,0.00,NORTH WALL (T.S16.I41),Other/Same Surface Int Conv,ASHRAETARP,NoSun,NoWind,0.50,0.50,0.50,0.50,4
HeatTransfer_Surface,iz-WEST WALL (T.E17.I44),Wall,,CTF - ConductionTransferFunction,,6.299,3.242,,21.18,21.18,21.18,90.00,90.00,23.16,0.91,0.00,WEST WALL (T.E17.I44),Other/Same Surface Int Conv,ASHRAETARP,NoSun,NoWind,0.50,0.50,0.50,0.50,4
HeatTransfer_Surface,iz-SOUTH WALL (T.N18.I46),Wall,,CTF - ConductionTransferFunction,,6.299,3.242,,21.18,21.18,21.18,0.00,90.00,23.16,0.91,0.00,SOUTH WALL (T.N18.I46),Other/Same Surface Int Conv,ASHRAETARP,NoSun,NoWind,0.50,0.50,0.50,0.50,4
HeatTransfer_Surface,iz-EAST WALL (T.W19.I47),Wall,,CTF - ConductionTransferFunction,,6.299,3.242,,21.18,21.18,21.18,270.00,90.00,23.16,0.91,0.00,EAST WALL (T.W19.I47),Other/Same Surface Int Conv,ASHRAETARP,NoSun,NoWind,0.50,0.50,0.50,0.50,4
HeatTransfer_Surface,iz-CEILING (T.C15.I39),Floor,,CTF - ConductionTransferFunction,,4.488,2.147,,536.56,536.56,536.56,0.00,180.00,23.16,23.16,0.00,CEILING (T.C15.I39),Other/Same Surface Int Conv,ASHRAETARP,NoSun,NoWind,1.00,0.00,1.00,0.00,4
HeatTransfer_Surface,ROOF (T.C20.E21),Roof,,CTF - ConductionTransferFunction,,0.377,0.352,,536.56,536.56,536.56,180.00,0.00,23.16,23.16,0.00,ExternalEnvironment,ASHRAETARP,ASHRAETARP,SunExposed,WindExposed,0.00,1.00,0.00,1.00,4
! <Environment>,Environment Name,Environment Type, Start Date, End Date, Start DayOfWeek, Duration {#days}, Source:Start DayOfWeek,  Use Daylight Saving, Use Holidays, Apply Weekend Holiday Rule,  Use Rain Values, Use Snow Values
! <Environment:Special Days>, Special Day Name, Special Day Type, Source, Start Date, Duration {#days}
! <Environment:Daylight Saving>, Daylight Saving Indicator, Source, Start Date, End Date
! <Environment:WarmupDays>, NumberofWarmupDays
Environment,Pasco WA USA TMY3 WMO#=727845,WeatherFileRunPeriod,08/01,08/30,Monday,30,Use RunPeriod Specified Day,No,No,No,Yes,Yes
Environment:Daylight Saving,Yes,InputFile,03/13,11/06
Environment:Special Days,NEW YEARS DAY,Holiday,InputFile,01/01,  1
Environment:Special Days,VETERANS DAY,Holiday,InputFile,11/11,  1
Environment:Special Days,CHRISTMAS,Holiday,InputFile,12/25,  1
Environment:Special Days,INDEPENDENCE DAY,Holiday,InputFile,07/04,  1
Environment:Special Days,MLK DAY,Holiday,InputFile,01/17,  1
Environment:Special Days,PRESIDENTS DAY,Holiday,InputFile,02/21,  1
Environment:Special Days,MEMORIAL DAY,Holiday,InputFile,05/30,  1
Environment:Special Days,LABOR DAY,Holiday,InputFile,09/05,  1
Environment:Special Days,COLUMBUS DAY,Holiday,InputFile,10/10,  1
Environment:Special Days,THANKSGIVING,Holiday,InputFile,11/24,  1
Environment:WarmupDays,  6
! <Warmup Convergence Information>,Zone Name,Environment Type/Name,Average Warmup Temperature Difference {deltaC},Std Dev Warmup Temperature Difference {deltaC},Max Temperature Pass/Fail Convergence,Min Temperature Pass/Fail Convergence,Average Warmup Load Difference {W},Std Dev Warmup Load Difference {W},Heating Load Pass/Fail Convergence,Cooling Load Pass/Fail Convergence
 Warmup Convergence Information,SOUTH PERIM SPC GS1,RunPeriod: Pasco WA USA TMY3 WMO#=727845,0.1010952683,0.1559380855,Pass,Pass,0.3343650841,1.0574719548,Pass,Pass
 Warmup Convergence Information,EAST PERIM SPC GE2,RunPeriod: Pasco WA USA TMY3 WMO#=727845,0.1355027709,0.1837983424,Pass,Pass,2.8143094019,64.0347217991,Pass,Pass
 Warmup Convergence Information,NORTH PERIM SPC GN3,RunPeriod: Pasco WA USA TMY3 WMO#=727845,3.6695400378E-002,9.1329290755E-002,Pass,Pass,0.5000797667,9.0073079705,Pass,Pass
 Warmup Convergence Information,WEST PERIM SPC GW4,RunPeriod: Pasco WA USA TMY3 WMO#=727845,0.1110771689,0.1851113343,Pass,Pass,0.4961550320,3.9627266239,Pass,Pass
 Warmup Convergence Information,CORE SPC GC5,RunPeriod: Pasco WA USA TMY3 WMO#=727845,1.0932436436E-002,4.1714703169E-002,Pass,Pass,4.2703226741E-002,0.3205907544,Pass,Pass
 Warmup Convergence Information,SOUTH PERIM PLNM GS6,RunPeriod: Pasco WA USA TMY3 WMO#=727845,2.8724544228E-002,3.6480665058E-002,Pass,Pass,1.7568819768,33.8421771297,Pass,Pass
 Warmup Convergence Information,EAST PERIM PLNM GE7,RunPeriod: Pasco WA USA TMY3 WMO#=727845,3.5043862671E-002,3.7922833302E-002,Pass,Pass,2.0288527783,29.6384825202,Pass,Pass
 Warmup Convergence Information,NORTH PERIM PLNM GN8,RunPeriod: Pasco WA USA TMY3 WMO#=727845,1.1069414773E-002,2.0997948784E-002,Pass,Pass,0.1875753168,0.9424955477,Pass,Pass
 Warmup Convergence Information,WEST PERIM PLNM GW9,RunPeriod: Pasco WA USA TMY3 WMO#=727845,4.6447990842E-002,6.1649091305E-002,Pass,Pass,0.7539884418,8.2516598746,Pass,Pass
 Warmup Convergence Information,CORE PLNM GC10,RunPeriod: Pasco WA USA TMY3 WMO#=727845,2.0405730463E-003,3.2015455483E-003,Pass,Pass,0.1175472616,1.7120616979,Pass,Pass
 Warmup Convergence Information,SOUTH PERIM SPC TS11,RunPeriod: Pasco WA USA TMY3 WMO#=727845,2.4829275390E-002,9.1573842852E-002,Pass,Pass,0.2140516658,3.3325193492,Pass,Pass
 Warmup Convergence Information,EAST PERIM SPC TE12,RunPeriod: Pasco WA USA TMY3 WMO#=727845,0.1050834891,0.2078249036,Pass,Pass,0.4809017187,2.1805742294,Pass,Pass
 Warmup Convergence Information,NORTH PERIM SPC TN13,RunPeriod: Pasco WA USA TMY3 WMO#=727845,0.1152071998,0.1886330647,Pass,Pass,0.5358489213,3.2916802859,Pass,Pass
 Warmup Convergence Information,WEST PERIM SPC TW14,RunPeriod: Pasco WA USA TMY3 WMO#=727845,0.1282377380,0.2258778700,Pass,Pass,1.0212584384,7.3771728453,Pass,Pass
 Warmup Convergence Information,CORE SPC TC15,RunPeriod: Pasco WA USA TMY3 WMO#=727845,0.1539878080,0.1897684969,Pass,Pass,1.7657057825,38.4267351764,Pass,Pass
 Warmup Convergence Information,SOUTH PERIM PLNM TS16,RunPeriod: Pasco WA USA TMY3 WMO#=727845,1.5724411837E-002,3.9316996436E-002,Pass,Pass,0.2769972791,3.8629233965,Pass,Pass
 Warmup Convergence Information,EAST PERIM PLNM TE17,RunPeriod: Pasco WA USA TMY3 WMO#=727845,5.3954818817E-002,8.2530323651E-002,Pass,Pass,0.5383733884,6.2283903146,Pass,Pass
 Warmup Convergence Information,NORTH PERIM PLNM TN18,RunPeriod: Pasco WA USA TMY3 WMO#=727845,4.8211601435E-002,6.1771945468E-002,Pass,Pass,0.5590632293,4.2053963947,Pass,Pass
 Warmup Convergence Information,WEST PERIM PLNM TW19,RunPeriod: Pasco WA USA TMY3 WMO#=727845,6.7759422191E-002,9.4549889519E-002,Pass,Pass,0.6024863189,5.2267974216,Pass,Pass
 Warmup Convergence Information,CORE PLNM TC20,RunPeriod: Pasco WA USA TMY3 WMO#=727845,4.3845008794E-002,4.3087711802E-002,Pass,Pass,0.6466444086,11.9270586955,Pass,Pass
! <Program Control Information:Threads/Parallel Sims>, Threading Supported,Maximum Number of Threads, Env Set Threads (OMP_NUM_THREADS), EP Env Set Threads (EP_OMP_NUM_THREADS), IDF Set Threads, Number of Threads Used (Interior Radiant Exchange), Number Nominal Surfaces, Number Parallel Sims
Program Control:Threads/Parallel Sims, No,1, N/A, N/A, N/A, N/A, N/A, N/A
End of Data
