  0
SECTION
  2
ENTITIES
999
DXF created from EnergyPlus
999
Program Version,EnergyPlus, Version 8.4.0-09f5359d8a, YMD=2022.03.20 22:02
999
Polygon Action,ThickPolyline
999
Color Scheme,Default
999
Text - True North
  0
TEXT
  8
1
  6
Continuous
 62
  3
 10
      -11.00000
 20
        3.00000
 30
        0.10000
 40
 .25
  1
True North
 41
 0.0
  7
MONOTXT
210
0.0
220
0.0
230
1.0
999
Text - Building Title
  0
TEXT
  8
1
  6
Continuous
 62
  3
 10
      -14.00000
 20
       -1.00000
 30
        0.10000
 40
 .4
  1
Building - Office Small AEDG-50
 41
 0.0
  7
MONOTXT
210
0.0
220
0.0
230
1.0
999
North Arrow Stem
  0
3DFACE
  8
1
 62
  3
 10
      -10.00000
 20
        3.00000
 30
        0.10000
 11
      -10.00000
 21
        3.00000
 31
        0.00000
 12
      -10.00000
 22
        0.00000
 32
        0.00000
 13
      -10.00000
 23
        0.00000
 33
        0.10000
999
North Arrow Head 1
  0
3DFACE
  8
1
 62
  3
 10
      -10.00000
 20
        3.00000
 30
        0.10000
 11
      -10.00000
 21
        3.00000
 31
        0.00000
 12
      -10.50000
 22
        2.13398
 32
        0.00000
 13
      -10.50000
 23
        2.13398
 33
        0.10000
999
North Arrow Head 2
  0
3DFACE
  8
1
 62
  3
 10
      -10.00000
 20
        3.00000
 30
        0.10000
 11
      -10.00000
 21
        3.00000
 31
        0.00000
 12
       -9.50000
 22
        2.13398
 32
        0.00000
 13
       -9.50000
 23
        2.13398
 33
        0.10000
999
North Arrow Side 1
  0
3DFACE
  8
1
 62
  3
 10
      -10.50000
 20
        4.50000
 30
        0.10000
 11
      -10.50000
 21
        4.50000
 31
        0.00000
 12
      -10.50000
 22
        3.50000
 32
        0.00000
 13
      -10.50000
 23
        3.50000
 33
        0.10000
999
North Arrow Side 2
  0
3DFACE
  8
1
 62
  3
 10
      -10.50000
 20
        4.50000
 30
        0.10000
 11
      -10.50000
 21
        4.50000
 31
        0.00000
 12
       -9.50000
 22
        3.50000
 32
        0.00000
 13
       -9.50000
 23
        3.50000
 33
        0.10000
999
North Arrow Side 3
  0
3DFACE
  8
1
 62
  3
 10
       -9.50000
 20
        4.50000
 30
        0.10000
 11
       -9.50000
 21
        4.50000
 31
        0.00000
 12
       -9.50000
 22
        3.50000
 32
        0.00000
 13
       -9.50000
 23
        3.50000
 33
        0.10000
999
Zone Names
999
Zone=1:SOUTH_PERIM_SPC_GS1
999
Zone=2:EAST_PERIM_SPC_GE2
999
Zone=3:NORTH_PERIM_SPC_GN3
999
Zone=4:WEST_PERIM_SPC_GW4
999
Zone=5:CORE_SPC_GC5
999
Zone=6:SOUTH_PERIM_PLNM_GS6
999
Zone=7:EAST_PERIM_PLNM_GE7
999
Zone=8:NORTH_PERIM_PLNM_GN8
999
Zone=9:WEST_PERIM_PLNM_GW9
999
Zone=10:CORE_PLNM_GC10
999
Zone=11:SOUTH_PERIM_SPC_TS11
999
Zone=12:EAST_PERIM_SPC_TE12
999
Zone=13:NORTH_PERIM_SPC_TN13
999
Zone=14:WEST_PERIM_SPC_TW14
999
Zone=15:CORE_SPC_TC15
999
Zone=16:SOUTH_PERIM_PLNM_TS16
999
Zone=17:EAST_PERIM_PLNM_TE17
999
Zone=18:NORTH_PERIM_PLNM_TN18
999
Zone=19:WEST_PERIM_PLNM_TW19
999
Zone=20:CORE_PLNM_TC20
999
SOUTH PERIM SPC GS1:SOUTH WALL (G.S1.E1)
  0
3DFACE
  8
SOUTH_PERIM_SPC_GS1
 62
 43
 10
        0.00000
 20
        0.00000
 30
        2.74307
 11
        0.00000
 21
        0.00000
 31
        0.00000
 12
       30.47851
 22
        0.00000
 32
        0.00000
 13
       30.47851
 23
        0.00000
 33
        2.74307
999
SOUTH PERIM SPC GS1:SOUTH WIN - LEFT  (G.S1.E1.W4)
  0
3DFACE
  8
SOUTH_PERIM_SPC_GS1
 62
143
 10
       12.42060
 20
        0.00000
 30
        2.28600
 11
       12.42060
 21
        0.00000
 31
        0.76200
 12
       14.24940
 22
        0.00000
 32
        0.76200
 13
       14.24940
 23
        0.00000
 33
        2.28600
999
SOUTH PERIM SPC GS1:SOUTH WIN - LEFT  (G.S1.E1.W8)
  0
3DFACE
  8
SOUTH_PERIM_SPC_GS1
 62
143
 10
       27.66060
 20
        0.00000
 30
        2.28600
 11
       27.66060
 21
        0.00000
 31
        0.76200
 12
       29.48940
 22
        0.00000
 32
        0.76200
 13
       29.48940
 23
        0.00000
 33
        2.28600
999
SOUTH PERIM SPC GS1:SOUTH DOOR (G.S1.E1.D1)
  0
3DFACE
  8
SOUTH_PERIM_SPC_GS1
 62
 45
 10
       14.62969
 20
        0.00000
 30
        2.13350
 11
       14.62969
 21
        0.00000
 31
        0.00000
 12
       15.84883
 22
        0.00000
 32
        0.00000
 13
       15.84883
 23
        0.00000
 33
        2.13350
999
SOUTH PERIM SPC GS1:SOUTH WIN - LEFT  (G.S1.E1.W1)
  0
3DFACE
  8
SOUTH_PERIM_SPC_GS1
 62
143
 10
        0.99060
 20
        0.00000
 30
        2.28600
 11
        0.99060
 21
        0.00000
 31
        0.76200
 12
        2.81940
 22
        0.00000
 32
        0.76200
 13
        2.81940
 23
        0.00000
 33
        2.28600
999
SOUTH PERIM SPC GS1:SOUTH WIN - LEFT  (G.S1.E1.W2)
  0
3DFACE
  8
SOUTH_PERIM_SPC_GS1
 62
143
 10
        4.80060
 20
        0.00000
 30
        2.28600
 11
        4.80060
 21
        0.00000
 31
        0.76200
 12
        6.62940
 22
        0.00000
 32
        0.76200
 13
        6.62940
 23
        0.00000
 33
        2.28600
999
SOUTH PERIM SPC GS1:SOUTH WIN - LEFT  (G.S1.E1.W3)
  0
3DFACE
  8
SOUTH_PERIM_SPC_GS1
 62
143
 10
        8.61060
 20
        0.00000
 30
        2.28600
 11
        8.61060
 21
        0.00000
 31
        0.76200
 12
       10.43940
 22
        0.00000
 32
        0.76200
 13
       10.43940
 23
        0.00000
 33
        2.28600
999
SOUTH PERIM SPC GS1:SOUTH WIN - LEFT  (G.S1.E1.W5)
  0
3DFACE
  8
SOUTH_PERIM_SPC_GS1
 62
143
 10
       16.23060
 20
        0.00000
 30
        2.28600
 11
       16.23060
 21
        0.00000
 31
        0.76200
 12
       18.05940
 22
        0.00000
 32
        0.76200
 13
       18.05940
 23
        0.00000
 33
        2.28600
999
SOUTH PERIM SPC GS1:SOUTH WIN - LEFT  (G.S1.E1.W6)
  0
3DFACE
  8
SOUTH_PERIM_SPC_GS1
 62
143
 10
       20.04060
 20
        0.00000
 30
        2.28600
 11
       20.04060
 21
        0.00000
 31
        0.76200
 12
       21.86940
 22
        0.00000
 32
        0.76200
 13
       21.86940
 23
        0.00000
 33
        2.28600
999
SOUTH PERIM SPC GS1:SOUTH WIN - LEFT  (G.S1.E1.W7)
  0
3DFACE
  8
SOUTH_PERIM_SPC_GS1
 62
143
 10
       23.85060
 20
        0.00000
 30
        2.28600
 11
       23.85060
 21
        0.00000
 31
        0.76200
 12
       25.67940
 22
        0.00000
 32
        0.76200
 13
       25.67940
 23
        0.00000
 33
        2.28600
999
SOUTH PERIM SPC GS1:NE WALL (G.S1.I1)
  0
3DFACE
  8
SOUTH_PERIM_SPC_GS1
 62
 43
 10
       30.47851
 20
        0.00000
 30
        2.74307
 11
       30.47851
 21
        0.00000
 31
        0.00000
 12
       26.82109
 22
        3.65742
 32
        0.00000
 13
       26.82109
 23
        3.65742
 33
        2.74307
999
SOUTH PERIM SPC GS1:NORTH WALL (G.S1.I2)
  0
3DFACE
  8
SOUTH_PERIM_SPC_GS1
 62
 43
 10
       26.82109
 20
        3.65742
 30
        2.74307
 11
       26.82109
 21
        3.65742
 31
        0.00000
 12
        3.65742
 22
        3.65742
 32
        0.00000
 13
        3.65742
 23
        3.65742
 33
        2.74307
999
SOUTH PERIM SPC GS1:NW WALL (G.S1.I3)
  0
3DFACE
  8
SOUTH_PERIM_SPC_GS1
 62
 43
 10
        3.65742
 20
        3.65742
 30
        2.74307
 11
        3.65742
 21
        3.65742
 31
        0.00000
 12
        0.00000
 22
        0.00000
 32
        0.00000
 13
        0.00000
 23
        0.00000
 33
        2.74307
999
SOUTH PERIM SPC GS1:FLR (G.S1.U1)
  0
3DFACE
  8
SOUTH_PERIM_SPC_GS1
 62
  8
 10
       30.47851
 20
        0.00000
 30
        0.00000
 11
        0.00000
 21
        0.00000
 31
        0.00000
 12
        3.65742
 22
        3.65742
 32
        0.00000
 13
       26.82109
 23
        3.65742
 33
        0.00000
999
SOUTH PERIM SPC GS1:CEILING (G.S1.I4)
  0
3DFACE
  8
SOUTH_PERIM_SPC_GS1
 62
 15
 10
        0.00000
 20
        0.00000
 30
        2.74307
 11
       30.47851
 21
        0.00000
 31
        2.74307
 12
       26.82109
 22
        3.65742
 32
        2.74307
 13
        3.65742
 23
        3.65742
 33
        2.74307
999
EAST PERIM SPC GE2:EAST WALL (G.E2.E2)
  0
3DFACE
  8
EAST_PERIM_SPC_GE2
 62
 43
 10
       30.47851
 20
        0.00000
 30
        2.74307
 11
       30.47851
 21
        0.00000
 31
        0.00000
 12
       30.47851
 22
       30.47851
 32
        0.00000
 13
       30.47851
 23
       30.47851
 33
        2.74307
999
EAST PERIM SPC GE2:EAST WIN - LEFT (G.E2.E2.W4)
  0
3DFACE
  8
EAST_PERIM_SPC_GE2
 62
143
 10
       30.47851
 20
       12.42060
 30
        2.28600
 11
       30.47851
 21
       12.42060
 31
        0.76200
 12
       30.47851
 22
       14.24940
 32
        0.76200
 13
       30.47851
 23
       14.24940
 33
        2.28600
999
EAST PERIM SPC GE2:EAST WIN - RIGHT (G.E2.E2.W8)
  0
3DFACE
  8
EAST_PERIM_SPC_GE2
 62
143
 10
       30.47851
 20
       27.66060
 30
        2.28600
 11
       30.47851
 21
       27.66060
 31
        0.76200
 12
       30.47851
 22
       29.48940
 32
        0.76200
 13
       30.47851
 23
       29.48940
 33
        2.28600
999
EAST PERIM SPC GE2:EAST DOOR (G.E2.E2.D1)
  0
3DFACE
  8
EAST_PERIM_SPC_GE2
 62
 45
 10
       30.47851
 20
       14.62969
 30
        2.13350
 11
       30.47851
 21
       14.62969
 31
        0.00000
 12
       30.47851
 22
       15.84883
 32
        0.00000
 13
       30.47851
 23
       15.84883
 33
        2.13350
999
EAST PERIM SPC GE2:EAST WIN - LEFT (G.E2.E2.W1)
  0
3DFACE
  8
EAST_PERIM_SPC_GE2
 62
143
 10
       30.47851
 20
        0.99060
 30
        2.28600
 11
       30.47851
 21
        0.99060
 31
        0.76200
 12
       30.47851
 22
        2.81940
 32
        0.76200
 13
       30.47851
 23
        2.81940
 33
        2.28600
999
EAST PERIM SPC GE2:EAST WIN - LEFT (G.E2.E2.W2)
  0
3DFACE
  8
EAST_PERIM_SPC_GE2
 62
143
 10
       30.47851
 20
        4.80060
 30
        2.28600
 11
       30.47851
 21
        4.80060
 31
        0.76200
 12
       30.47851
 22
        6.62940
 32
        0.76200
 13
       30.47851
 23
        6.62940
 33
        2.28600
999
EAST PERIM SPC GE2:EAST WIN - LEFT (G.E2.E2.W3)
  0
3DFACE
  8
EAST_PERIM_SPC_GE2
 62
143
 10
       30.47851
 20
        8.61060
 30
        2.28600
 11
       30.47851
 21
        8.61060
 31
        0.76200
 12
       30.47851
 22
       10.43940
 32
        0.76200
 13
       30.47851
 23
       10.43940
 33
        2.28600
999
EAST PERIM SPC GE2:EAST WIN - LEFT (G.E2.E2.W5)
  0
3DFACE
  8
EAST_PERIM_SPC_GE2
 62
143
 10
       30.47851
 20
       16.23060
 30
        2.28600
 11
       30.47851
 21
       16.23060
 31
        0.76200
 12
       30.47851
 22
       18.05940
 32
        0.76200
 13
       30.47851
 23
       18.05940
 33
        2.28600
999
EAST PERIM SPC GE2:EAST WIN - LEFT (G.E2.E2.W6)
  0
3DFACE
  8
EAST_PERIM_SPC_GE2
 62
143
 10
       30.47851
 20
       20.04060
 30
        2.28600
 11
       30.47851
 21
       20.04060
 31
        0.76200
 12
       30.47851
 22
       21.86940
 32
        0.76200
 13
       30.47851
 23
       21.86940
 33
        2.28600
999
EAST PERIM SPC GE2:EAST WIN - LEFT (G.E2.E2.W7)
  0
3DFACE
  8
EAST_PERIM_SPC_GE2
 62
143
 10
       30.47851
 20
       23.85060
 30
        2.28600
 11
       30.47851
 21
       23.85060
 31
        0.76200
 12
       30.47851
 22
       25.67940
 32
        0.76200
 13
       30.47851
 23
       25.67940
 33
        2.28600
999
EAST PERIM SPC GE2:NW WALL (G.E2.I5)
  0
3DFACE
  8
EAST_PERIM_SPC_GE2
 62
 43
 10
       30.47851
 20
       30.47851
 30
        2.74307
 11
       30.47851
 21
       30.47851
 31
        0.00000
 12
       26.82109
 22
       26.82109
 32
        0.00000
 13
       26.82109
 23
       26.82109
 33
        2.74307
999
EAST PERIM SPC GE2:WEST WALL (G.E2.I6)
  0
3DFACE
  8
EAST_PERIM_SPC_GE2
 62
 43
 10
       26.82109
 20
       26.82109
 30
        2.74307
 11
       26.82109
 21
       26.82109
 31
        0.00000
 12
       26.82109
 22
        3.65742
 32
        0.00000
 13
       26.82109
 23
        3.65742
 33
        2.74307
999
EAST PERIM SPC GE2:iz-NE WALL (G.S1.I1)
  0
3DFACE
  8
EAST_PERIM_SPC_GE2
 62
 43
 10
       26.82109
 20
        3.65742
 30
        2.74307
 11
       26.82109
 21
        3.65742
 31
        0.00000
 12
       30.47851
 22
        0.00000
 32
        0.00000
 13
       30.47851
 23
        0.00000
 33
        2.74307
999
EAST PERIM SPC GE2:FLR (G.E2.U2)
  0
3DFACE
  8
EAST_PERIM_SPC_GE2
 62
  8
 10
       30.47851
 20
       30.47851
 30
        0.00000
 11
       30.47851
 21
        0.00000
 31
        0.00000
 12
       26.82109
 22
        3.65742
 32
        0.00000
 13
       26.82109
 23
       26.82109
 33
        0.00000
999
EAST PERIM SPC GE2:CEILING (G.E2.I7)
  0
3DFACE
  8
EAST_PERIM_SPC_GE2
 62
 15
 10
       30.47851
 20
       30.47851
 30
        2.74307
 11
       26.82109
 21
       26.82109
 31
        2.74307
 12
       26.82109
 22
        3.65742
 32
        2.74307
 13
       30.47851
 23
        0.00000
 33
        2.74307
999
NORTH PERIM SPC GN3:NORTH WALL (G.N3.E3)
  0
3DFACE
  8
NORTH_PERIM_SPC_GN3
 62
 43
 10
       30.47851
 20
       30.47851
 30
        2.74307
 11
       30.47851
 21
       30.47851
 31
        0.00000
 12
        0.00000
 22
       30.47851
 32
        0.00000
 13
        0.00000
 23
       30.47851
 33
        2.74307
999
NORTH PERIM SPC GN3:NORTH WIN - LEFT (G.N3.E3.W4)
  0
3DFACE
  8
NORTH_PERIM_SPC_GN3
 62
143
 10
       18.05791
 20
       30.47851
 30
        2.28600
 11
       18.05791
 21
       30.47851
 31
        0.76200
 12
       16.22911
 22
       30.47851
 32
        0.76200
 13
       16.22911
 23
       30.47851
 33
        2.28600
999
NORTH PERIM SPC GN3:NORTH WIN - RIGHT (G.N3.E3.W8)
  0
3DFACE
  8
NORTH_PERIM_SPC_GN3
 62
143
 10
        2.81791
 20
       30.47851
 30
        2.28600
 11
        2.81791
 21
       30.47851
 31
        0.76200
 12
        0.98911
 22
       30.47851
 32
        0.76200
 13
        0.98911
 23
       30.47851
 33
        2.28600
999
NORTH PERIM SPC GN3:NORTH DOOR (G.N3.E3.D1)
  0
3DFACE
  8
NORTH_PERIM_SPC_GN3
 62
 45
 10
       15.84883
 20
       30.47851
 30
        2.13350
 11
       15.84883
 21
       30.47851
 31
        0.00000
 12
       14.62969
 22
       30.47851
 32
        0.00000
 13
       14.62969
 23
       30.47851
 33
        2.13350
999
NORTH PERIM SPC GN3:NORTH WIN - LEFT (G.N3.E3.W1)
  0
3DFACE
  8
NORTH_PERIM_SPC_GN3
 62
143
 10
       29.48791
 20
       30.47851
 30
        2.28600
 11
       29.48791
 21
       30.47851
 31
        0.76200
 12
       27.65911
 22
       30.47851
 32
        0.76200
 13
       27.65911
 23
       30.47851
 33
        2.28600
999
NORTH PERIM SPC GN3:NORTH WIN - LEFT (G.N3.E3.W2)
  0
3DFACE
  8
NORTH_PERIM_SPC_GN3
 62
143
 10
       25.67791
 20
       30.47851
 30
        2.28600
 11
       25.67791
 21
       30.47851
 31
        0.76200
 12
       23.84911
 22
       30.47851
 32
        0.76200
 13
       23.84911
 23
       30.47851
 33
        2.28600
999
NORTH PERIM SPC GN3:NORTH WIN - LEFT (G.N3.E3.W3)
  0
3DFACE
  8
NORTH_PERIM_SPC_GN3
 62
143
 10
       21.86791
 20
       30.47851
 30
        2.28600
 11
       21.86791
 21
       30.47851
 31
        0.76200
 12
       20.03911
 22
       30.47851
 32
        0.76200
 13
       20.03911
 23
       30.47851
 33
        2.28600
999
NORTH PERIM SPC GN3:NORTH WIN - LEFT (G.N3.E3.W5)
  0
3DFACE
  8
NORTH_PERIM_SPC_GN3
 62
143
 10
       14.24791
 20
       30.47851
 30
        2.28600
 11
       14.24791
 21
       30.47851
 31
        0.76200
 12
       12.41911
 22
       30.47851
 32
        0.76200
 13
       12.41911
 23
       30.47851
 33
        2.28600
999
NORTH PERIM SPC GN3:NORTH WIN - LEFT (G.N3.E3.W7)
  0
3DFACE
  8
NORTH_PERIM_SPC_GN3
 62
143
 10
        6.62791
 20
       30.47851
 30
        2.28600
 11
        6.62791
 21
       30.47851
 31
        0.76200
 12
        4.79911
 22
       30.47851
 32
        0.76200
 13
        4.79911
 23
       30.47851
 33
        2.28600
999
NORTH PERIM SPC GN3:NORTH WIN - LEFT (G.N3.E3.W6)
  0
3DFACE
  8
NORTH_PERIM_SPC_GN3
 62
143
 10
       10.43791
 20
       30.47851
 30
        2.28600
 11
       10.43791
 21
       30.47851
 31
        0.76200
 12
        8.60911
 22
       30.47851
 32
        0.76200
 13
        8.60911
 23
       30.47851
 33
        2.28600
999
NORTH PERIM SPC GN3:SW WALL (G.N3.I8)
  0
3DFACE
  8
NORTH_PERIM_SPC_GN3
 62
 43
 10
        0.00000
 20
       30.47851
 30
        2.74307
 11
        0.00000
 21
       30.47851
 31
        0.00000
 12
        3.65742
 22
       26.82109
 32
        0.00000
 13
        3.65742
 23
       26.82109
 33
        2.74307
999
NORTH PERIM SPC GN3:SOUTH WALL (G.N3.I9)
  0
3DFACE
  8
NORTH_PERIM_SPC_GN3
 62
 43
 10
        3.65742
 20
       26.82109
 30
        2.74307
 11
        3.65742
 21
       26.82109
 31
        0.00000
 12
       26.82109
 22
       26.82109
 32
        0.00000
 13
       26.82109
 23
       26.82109
 33
        2.74307
999
NORTH PERIM SPC GN3:iz-NW WALL (G.E2.I5)
  0
3DFACE
  8
NORTH_PERIM_SPC_GN3
 62
 43
 10
       26.82109
 20
       26.82109
 30
        2.74307
 11
       26.82109
 21
       26.82109
 31
        0.00000
 12
       30.47851
 22
       30.47851
 32
        0.00000
 13
       30.47851
 23
       30.47851
 33
        2.74307
999
NORTH PERIM SPC GN3:FLR (G.N3.U3)
  0
3DFACE
  8
NORTH_PERIM_SPC_GN3
 62
  8
 10
       30.47851
 20
       30.47851
 30
        0.00000
 11
       26.82109
 21
       26.82109
 31
        0.00000
 12
        3.65742
 22
       26.82109
 32
        0.00000
 13
        0.00000
 23
       30.47851
 33
        0.00000
999
NORTH PERIM SPC GN3:CEILING (G.N3.I10)
  0
3DFACE
  8
NORTH_PERIM_SPC_GN3
 62
 15
 10
        0.00000
 20
       30.47851
 30
        2.74307
 11
        3.65742
 21
       26.82109
 31
        2.74307
 12
       26.82109
 22
       26.82109
 32
        2.74307
 13
       30.47851
 23
       30.47851
 33
        2.74307
999
WEST PERIM SPC GW4:WEST WALL (G.W4.E4)
  0
3DFACE
  8
WEST_PERIM_SPC_GW4
 62
 43
 10
        0.00000
 20
       30.47851
 30
        2.74307
 11
        0.00000
 21
       30.47851
 31
        0.00000
 12
        0.00000
 22
        0.00000
 32
        0.00000
 13
        0.00000
 23
        0.00000
 33
        2.74307
999
WEST PERIM SPC GW4:WEST WIN - LEFT (G.W4.E4.W4)
  0
3DFACE
  8
WEST_PERIM_SPC_GW4
 62
143
 10
        0.00000
 20
       18.05791
 30
        2.28600
 11
        0.00000
 21
       18.05791
 31
        0.76200
 12
        0.00000
 22
       16.22911
 32
        0.76200
 13
        0.00000
 23
       16.22911
 33
        2.28600
999
WEST PERIM SPC GW4:WEST WIN - RIGHT (G.W4.E4.W8)
  0
3DFACE
  8
WEST_PERIM_SPC_GW4
 62
143
 10
        0.00000
 20
        2.81791
 30
        2.28600
 11
        0.00000
 21
        2.81791
 31
        0.76200
 12
        0.00000
 22
        0.98911
 32
        0.76200
 13
        0.00000
 23
        0.98911
 33
        2.28600
999
WEST PERIM SPC GW4:WEST DOOR (G.W4.E4.D1)
  0
3DFACE
  8
WEST_PERIM_SPC_GW4
 62
 45
 10
        0.00000
 20
       15.84883
 30
        2.13350
 11
        0.00000
 21
       15.84883
 31
        0.00000
 12
        0.00000
 22
       14.62969
 32
        0.00000
 13
        0.00000
 23
       14.62969
 33
        2.13350
999
WEST PERIM SPC GW4:WEST WIN - LEFT (G.W4.E4.W1)
  0
3DFACE
  8
WEST_PERIM_SPC_GW4
 62
143
 10
        0.00000
 20
       29.48791
 30
        2.28600
 11
        0.00000
 21
       29.48791
 31
        0.76200
 12
        0.00000
 22
       27.65911
 32
        0.76200
 13
        0.00000
 23
       27.65911
 33
        2.28600
999
WEST PERIM SPC GW4:WEST WIN - LEFT (G.W4.E4.W2)
  0
3DFACE
  8
WEST_PERIM_SPC_GW4
 62
143
 10
        0.00000
 20
       25.67791
 30
        2.28600
 11
        0.00000
 21
       25.67791
 31
        0.76200
 12
        0.00000
 22
       23.84911
 32
        0.76200
 13
        0.00000
 23
       23.84911
 33
        2.28600
999
WEST PERIM SPC GW4:WEST WIN - LEFT (G.W4.E4.W3)
  0
3DFACE
  8
WEST_PERIM_SPC_GW4
 62
143
 10
        0.00000
 20
       21.86791
 30
        2.28600
 11
        0.00000
 21
       21.86791
 31
        0.76200
 12
        0.00000
 22
       20.03911
 32
        0.76200
 13
        0.00000
 23
       20.03911
 33
        2.28600
999
WEST PERIM SPC GW4:WEST WIN - RIGHT (G.W4.E4.W5)
  0
3DFACE
  8
WEST_PERIM_SPC_GW4
 62
143
 10
        0.00000
 20
       14.24791
 30
        2.28600
 11
        0.00000
 21
       14.24791
 31
        0.76200
 12
        0.00000
 22
       12.41911
 32
        0.76200
 13
        0.00000
 23
       12.41911
 33
        2.28600
999
WEST PERIM SPC GW4:WEST WIN - RIGHT (G.W4.E4.W6)
  0
3DFACE
  8
WEST_PERIM_SPC_GW4
 62
143
 10
        0.00000
 20
       10.43791
 30
        2.28600
 11
        0.00000
 21
       10.43791
 31
        0.76200
 12
        0.00000
 22
        8.60911
 32
        0.76200
 13
        0.00000
 23
        8.60911
 33
        2.28600
999
WEST PERIM SPC GW4:WEST WIN - RIGHT (G.W4.E4.W7)
  0
3DFACE
  8
WEST_PERIM_SPC_GW4
 62
143
 10
        0.00000
 20
        6.62791
 30
        2.28600
 11
        0.00000
 21
        6.62791
 31
        0.76200
 12
        0.00000
 22
        4.79911
 32
        0.76200
 13
        0.00000
 23
        4.79911
 33
        2.28600
999
WEST PERIM SPC GW4:EAST WALL (G.W4.I11)
  0
3DFACE
  8
WEST_PERIM_SPC_GW4
 62
 43
 10
        3.65742
 20
        3.65742
 30
        2.74307
 11
        3.65742
 21
        3.65742
 31
        0.00000
 12
        3.65742
 22
       26.82109
 32
        0.00000
 13
        3.65742
 23
       26.82109
 33
        2.74307
999
WEST PERIM SPC GW4:iz-NW WALL (G.S1.I3)
  0
3DFACE
  8
WEST_PERIM_SPC_GW4
 62
 43
 10
        0.00000
 20
        0.00000
 30
        2.74307
 11
        0.00000
 21
        0.00000
 31
        0.00000
 12
        3.65742
 22
        3.65742
 32
        0.00000
 13
        3.65742
 23
        3.65742
 33
        2.74307
999
WEST PERIM SPC GW4:iz-SW WALL (G.N3.I8)
  0
3DFACE
  8
WEST_PERIM_SPC_GW4
 62
 43
 10
        3.65742
 20
       26.82109
 30
        2.74307
 11
        3.65742
 21
       26.82109
 31
        0.00000
 12
        0.00000
 22
       30.47851
 32
        0.00000
 13
        0.00000
 23
       30.47851
 33
        2.74307
999
WEST PERIM SPC GW4:FLR (G.W4.U4)
  0
3DFACE
  8
WEST_PERIM_SPC_GW4
 62
  8
 10
        0.00000
 20
       30.47851
 30
        0.00000
 11
        3.65742
 21
       26.82109
 31
        0.00000
 12
        3.65742
 22
        3.65742
 32
        0.00000
 13
        0.00000
 23
        0.00000
 33
        0.00000
999
WEST PERIM SPC GW4:CEILING (G.W4.I12)
  0
3DFACE
  8
WEST_PERIM_SPC_GW4
 62
 15
 10
        0.00000
 20
       30.47851
 30
        2.74307
 11
        0.00000
 21
        0.00000
 31
        2.74307
 12
        3.65742
 22
        3.65742
 32
        2.74307
 13
        3.65742
 23
       26.82109
 33
        2.74307
999
CORE SPC GC5:iz-NORTH WALL (G.S1.I2)
  0
3DFACE
  8
CORE_SPC_GC5
 62
 43
 10
        3.65742
 20
        3.65742
 30
        2.74307
 11
        3.65742
 21
        3.65742
 31
        0.00000
 12
       26.82109
 22
        3.65742
 32
        0.00000
 13
       26.82109
 23
        3.65742
 33
        2.74307
999
CORE SPC GC5:iz-WEST WALL (G.E2.I6)
  0
3DFACE
  8
CORE_SPC_GC5
 62
 43
 10
       26.82109
 20
        3.65742
 30
        2.74307
 11
       26.82109
 21
        3.65742
 31
        0.00000
 12
       26.82109
 22
       26.82109
 32
        0.00000
 13
       26.82109
 23
       26.82109
 33
        2.74307
999
CORE SPC GC5:iz-SOUTH WALL (G.N3.I9)
  0
3DFACE
  8
CORE_SPC_GC5
 62
 43
 10
       26.82109
 20
       26.82109
 30
        2.74307
 11
       26.82109
 21
       26.82109
 31
        0.00000
 12
        3.65742
 22
       26.82109
 32
        0.00000
 13
        3.65742
 23
       26.82109
 33
        2.74307
999
CORE SPC GC5:iz-EAST WALL (G.W4.I11)
  0
3DFACE
  8
CORE_SPC_GC5
 62
 43
 10
        3.65742
 20
       26.82109
 30
        2.74307
 11
        3.65742
 21
       26.82109
 31
        0.00000
 12
        3.65742
 22
        3.65742
 32
        0.00000
 13
        3.65742
 23
        3.65742
 33
        2.74307
999
CORE SPC GC5:FLR (G.C5.U5)
  0
3DFACE
  8
CORE_SPC_GC5
 62
  8
 10
       26.82109
 20
       26.82109
 30
        0.00000
 11
       26.82109
 21
        3.65742
 31
        0.00000
 12
        3.65742
 22
        3.65742
 32
        0.00000
 13
        3.65742
 23
       26.82109
 33
        0.00000
999
CORE SPC GC5:CEILING (G.C5.I13)
  0
3DFACE
  8
CORE_SPC_GC5
 62
 15
 10
        3.65742
 20
       26.82109
 30
        2.74307
 11
        3.65742
 21
        3.65742
 31
        2.74307
 12
       26.82109
 22
        3.65742
 32
        2.74307
 13
       26.82109
 23
       26.82109
 33
        2.74307
999
SOUTH PERIM PLNM GS6:SOUTH WALL (G.S6.E5)
  0
3DFACE
  8
SOUTH_PERIM_PLNM_GS6
 62
 43
 10
        0.00000
 20
        0.00000
 30
        3.65742
 11
        0.00000
 21
        0.00000
 31
        2.74307
 12
       30.47851
 22
        0.00000
 32
        2.74307
 13
       30.47851
 23
        0.00000
 33
        3.65742
999
SOUTH PERIM PLNM GS6:NE WALL (G.S6.I14)
  0
3DFACE
  8
SOUTH_PERIM_PLNM_GS6
 62
 43
 10
       30.47851
 20
        0.00000
 30
        3.65742
 11
       30.47851
 21
        0.00000
 31
        2.74307
 12
       26.82109
 22
        3.65742
 32
        2.74307
 13
       26.82109
 23
        3.65742
 33
        3.65742
999
SOUTH PERIM PLNM GS6:NORTH WALL (G.S6.I15)
  0
3DFACE
  8
SOUTH_PERIM_PLNM_GS6
 62
 43
 10
       26.82109
 20
        3.65742
 30
        3.65742
 11
       26.82109
 21
        3.65742
 31
        2.74307
 12
        3.65742
 22
        3.65742
 32
        2.74307
 13
        3.65742
 23
        3.65742
 33
        3.65742
999
SOUTH PERIM PLNM GS6:NW WALL (G.S6.I16)
  0
3DFACE
  8
SOUTH_PERIM_PLNM_GS6
 62
 43
 10
        3.65742
 20
        3.65742
 30
        3.65742
 11
        3.65742
 21
        3.65742
 31
        2.74307
 12
        0.00000
 22
        0.00000
 32
        2.74307
 13
        0.00000
 23
        0.00000
 33
        3.65742
999
SOUTH PERIM PLNM GS6:iz-CEILING (G.S1.I4)
  0
3DFACE
  8
SOUTH_PERIM_PLNM_GS6
 62
  8
 10
        3.65742
 20
        3.65742
 30
        2.74307
 11
       26.82109
 21
        3.65742
 31
        2.74307
 12
       30.47851
 22
        0.00000
 32
        2.74307
 13
        0.00000
 23
        0.00000
 33
        2.74307
999
SOUTH PERIM PLNM GS6:iz-FLR (T.S11.I22)
  0
3DFACE
  8
SOUTH_PERIM_PLNM_GS6
 62
 15
 10
       26.82109
 20
        3.65742
 30
        3.65742
 11
        3.65742
 21
        3.65742
 31
        3.65742
 12
        0.00000
 22
        0.00000
 32
        3.65742
 13
       30.47851
 23
        0.00000
 33
        3.65742
999
EAST PERIM PLNM GE7:EAST WALL (G.E7.E6)
  0
3DFACE
  8
EAST_PERIM_PLNM_GE7
 62
 43
 10
       30.47851
 20
        0.00000
 30
        3.65742
 11
       30.47851
 21
        0.00000
 31
        2.74307
 12
       30.47851
 22
       30.47851
 32
        2.74307
 13
       30.47851
 23
       30.47851
 33
        3.65742
999
EAST PERIM PLNM GE7:NW WALL (G.E7.I17)
  0
3DFACE
  8
EAST_PERIM_PLNM_GE7
 62
 43
 10
       30.47851
 20
       30.47851
 30
        3.65742
 11
       30.47851
 21
       30.47851
 31
        2.74307
 12
       26.82109
 22
       26.82109
 32
        2.74307
 13
       26.82109
 23
       26.82109
 33
        3.65742
999
EAST PERIM PLNM GE7:WEST WALL (G.E7.I18)
  0
3DFACE
  8
EAST_PERIM_PLNM_GE7
 62
 43
 10
       26.82109
 20
       26.82109
 30
        3.65742
 11
       26.82109
 21
       26.82109
 31
        2.74307
 12
       26.82109
 22
        3.65742
 32
        2.74307
 13
       26.82109
 23
        3.65742
 33
        3.65742
999
EAST PERIM PLNM GE7:iz-NE WALL (G.S6.I14)
  0
3DFACE
  8
EAST_PERIM_PLNM_GE7
 62
 43
 10
       26.82109
 20
        3.65742
 30
        3.65742
 11
       26.82109
 21
        3.65742
 31
        2.74307
 12
       30.47851
 22
        0.00000
 32
        2.74307
 13
       30.47851
 23
        0.00000
 33
        3.65742
999
EAST PERIM PLNM GE7:iz-CEILING (G.E2.I7)
  0
3DFACE
  8
EAST_PERIM_PLNM_GE7
 62
  8
 10
       30.47851
 20
        0.00000
 30
        2.74307
 11
       26.82109
 21
        3.65742
 31
        2.74307
 12
       26.82109
 22
       26.82109
 32
        2.74307
 13
       30.47851
 23
       30.47851
 33
        2.74307
999
EAST PERIM PLNM GE7:iz-FLR (T.E12.I27)
  0
3DFACE
  8
EAST_PERIM_PLNM_GE7
 62
 15
 10
       26.82109
 20
       26.82109
 30
        3.65742
 11
       26.82109
 21
        3.65742
 31
        3.65742
 12
       30.47851
 22
        0.00000
 32
        3.65742
 13
       30.47851
 23
       30.47851
 33
        3.65742
999
NORTH PERIM PLNM GN8:NORTH WALL (G.N8.E7)
  0
3DFACE
  8
NORTH_PERIM_PLNM_GN8
 62
 43
 10
       30.47851
 20
       30.47851
 30
        3.65742
 11
       30.47851
 21
       30.47851
 31
        2.74307
 12
        0.00000
 22
       30.47851
 32
        2.74307
 13
        0.00000
 23
       30.47851
 33
        3.65742
999
NORTH PERIM PLNM GN8:SW WALL (G.N8.I19)
  0
3DFACE
  8
NORTH_PERIM_PLNM_GN8
 62
 43
 10
        0.00000
 20
       30.47851
 30
        3.65742
 11
        0.00000
 21
       30.47851
 31
        2.74307
 12
        3.65742
 22
       26.82109
 32
        2.74307
 13
        3.65742
 23
       26.82109
 33
        3.65742
999
NORTH PERIM PLNM GN8:SOUTH WALL (G.N8.I20)
  0
3DFACE
  8
NORTH_PERIM_PLNM_GN8
 62
 43
 10
        3.65742
 20
       26.82109
 30
        3.65742
 11
        3.65742
 21
       26.82109
 31
        2.74307
 12
       26.82109
 22
       26.82109
 32
        2.74307
 13
       26.82109
 23
       26.82109
 33
        3.65742
999
NORTH PERIM PLNM GN8:iz-NW WALL (G.E7.I17)
  0
3DFACE
  8
NORTH_PERIM_PLNM_GN8
 62
 43
 10
       26.82109
 20
       26.82109
 30
        3.65742
 11
       26.82109
 21
       26.82109
 31
        2.74307
 12
       30.47851
 22
       30.47851
 32
        2.74307
 13
       30.47851
 23
       30.47851
 33
        3.65742
999
NORTH PERIM PLNM GN8:iz-CEILING (G.N3.I10)
  0
3DFACE
  8
NORTH_PERIM_PLNM_GN8
 62
  8
 10
       30.47851
 20
       30.47851
 30
        2.74307
 11
       26.82109
 21
       26.82109
 31
        2.74307
 12
        3.65742
 22
       26.82109
 32
        2.74307
 13
        0.00000
 23
       30.47851
 33
        2.74307
999
NORTH PERIM PLNM GN8:iz-FLR (T.N13.I31)
  0
3DFACE
  8
NORTH_PERIM_PLNM_GN8
 62
 15
 10
        0.00000
 20
       30.47851
 30
        3.65742
 11
        3.65742
 21
       26.82109
 31
        3.65742
 12
       26.82109
 22
       26.82109
 32
        3.65742
 13
       30.47851
 23
       30.47851
 33
        3.65742
999
WEST PERIM PLNM GW9:WEST WALL (G.W9.E8)
  0
3DFACE
  8
WEST_PERIM_PLNM_GW9
 62
 43
 10
        0.00000
 20
       30.47851
 30
        3.65742
 11
        0.00000
 21
       30.47851
 31
        2.74307
 12
        0.00000
 22
        0.00000
 32
        2.74307
 13
        0.00000
 23
        0.00000
 33
        3.65742
999
WEST PERIM PLNM GW9:EAST WALL (G.W9.I21)
  0
3DFACE
  8
WEST_PERIM_PLNM_GW9
 62
 43
 10
        3.65742
 20
        3.65742
 30
        3.65742
 11
        3.65742
 21
        3.65742
 31
        2.74307
 12
        3.65742
 22
       26.82109
 32
        2.74307
 13
        3.65742
 23
       26.82109
 33
        3.65742
999
WEST PERIM PLNM GW9:iz-NW WALL (G.S6.I16)
  0
3DFACE
  8
WEST_PERIM_PLNM_GW9
 62
 43
 10
        0.00000
 20
        0.00000
 30
        3.65742
 11
        0.00000
 21
        0.00000
 31
        2.74307
 12
        3.65742
 22
        3.65742
 32
        2.74307
 13
        3.65742
 23
        3.65742
 33
        3.65742
999
WEST PERIM PLNM GW9:iz-SW WALL (G.N8.I19)
  0
3DFACE
  8
WEST_PERIM_PLNM_GW9
 62
 43
 10
        3.65742
 20
       26.82109
 30
        3.65742
 11
        3.65742
 21
       26.82109
 31
        2.74307
 12
        0.00000
 22
       30.47851
 32
        2.74307
 13
        0.00000
 23
       30.47851
 33
        3.65742
999
WEST PERIM PLNM GW9:iz-CEILING (G.W4.I12)
  0
3DFACE
  8
WEST_PERIM_PLNM_GW9
 62
  8
 10
        3.65742
 20
       26.82109
 30
        2.74307
 11
        3.65742
 21
        3.65742
 31
        2.74307
 12
        0.00000
 22
        0.00000
 32
        2.74307
 13
        0.00000
 23
       30.47851
 33
        2.74307
999
WEST PERIM PLNM GW9:iz-FLR (T.W14.I35)
  0
3DFACE
  8
WEST_PERIM_PLNM_GW9
 62
 15
 10
        0.00000
 20
        0.00000
 30
        3.65742
 11
        3.65742
 21
        3.65742
 31
        3.65742
 12
        3.65742
 22
       26.82109
 32
        3.65742
 13
        0.00000
 23
       30.47851
 33
        3.65742
999
CORE PLNM GC10:iz-NORTH WALL (G.S6.I15)
  0
3DFACE
  8
CORE_PLNM_GC10
 62
 43
 10
        3.65742
 20
        3.65742
 30
        3.65742
 11
        3.65742
 21
        3.65742
 31
        2.74307
 12
       26.82109
 22
        3.65742
 32
        2.74307
 13
       26.82109
 23
        3.65742
 33
        3.65742
999
CORE PLNM GC10:iz-WEST WALL (G.E7.I18)
  0
3DFACE
  8
CORE_PLNM_GC10
 62
 43
 10
       26.82109
 20
        3.65742
 30
        3.65742
 11
       26.82109
 21
        3.65742
 31
        2.74307
 12
       26.82109
 22
       26.82109
 32
        2.74307
 13
       26.82109
 23
       26.82109
 33
        3.65742
999
CORE PLNM GC10:iz-SOUTH WALL (G.N8.I20)
  0
3DFACE
  8
CORE_PLNM_GC10
 62
 43
 10
       26.82109
 20
       26.82109
 30
        3.65742
 11
       26.82109
 21
       26.82109
 31
        2.74307
 12
        3.65742
 22
       26.82109
 32
        2.74307
 13
        3.65742
 23
       26.82109
 33
        3.65742
999
CORE PLNM GC10:iz-EAST WALL (G.W9.I21)
  0
3DFACE
  8
CORE_PLNM_GC10
 62
 43
 10
        3.65742
 20
       26.82109
 30
        3.65742
 11
        3.65742
 21
       26.82109
 31
        2.74307
 12
        3.65742
 22
        3.65742
 32
        2.74307
 13
        3.65742
 23
        3.65742
 33
        3.65742
999
CORE PLNM GC10:iz-CEILING (G.C5.I13)
  0
3DFACE
  8
CORE_PLNM_GC10
 62
  8
 10
       26.82109
 20
       26.82109
 30
        2.74307
 11
       26.82109
 21
        3.65742
 31
        2.74307
 12
        3.65742
 22
        3.65742
 32
        2.74307
 13
        3.65742
 23
       26.82109
 33
        2.74307
999
CORE PLNM GC10:iz-FLR (T.C15.I38)
  0
3DFACE
  8
CORE_PLNM_GC10
 62
 15
 10
        3.65742
 20
       26.82109
 30
        3.65742
 11
        3.65742
 21
        3.65742
 31
        3.65742
 12
       26.82109
 22
        3.65742
 32
        3.65742
 13
       26.82109
 23
       26.82109
 33
        3.65742
999
SOUTH PERIM SPC TS11:SOUTH WALL (T.S11.E9)
  0
3DFACE
  8
SOUTH_PERIM_SPC_TS11
 62
 43
 10
        0.00000
 20
        0.00000
 30
        6.40049
 11
        0.00000
 21
        0.00000
 31
        3.65742
 12
       30.47851
 22
        0.00000
 32
        3.65742
 13
       30.47851
 23
        0.00000
 33
        6.40049
999
SOUTH PERIM SPC TS11:SOUTH WIN - LEFT (T.S11.E9.W8)
  0
3DFACE
  8
SOUTH_PERIM_SPC_TS11
 62
143
 10
       27.66060
 20
        0.00000
 30
        5.94342
 11
       27.66060
 21
        0.00000
 31
        4.41942
 12
       29.48940
 22
        0.00000
 32
        4.41942
 13
       29.48940
 23
        0.00000
 33
        5.94342
999
SOUTH PERIM SPC TS11:SOUTH WIN - LEFT (T.S11.E9.W1)
  0
3DFACE
  8
SOUTH_PERIM_SPC_TS11
 62
143
 10
        0.99060
 20
        0.00000
 30
        5.94342
 11
        0.99060
 21
        0.00000
 31
        4.41942
 12
        2.81940
 22
        0.00000
 32
        4.41942
 13
        2.81940
 23
        0.00000
 33
        5.94342
999
SOUTH PERIM SPC TS11:SOUTH WIN - LEFT (T.S11.E9.W2)
  0
3DFACE
  8
SOUTH_PERIM_SPC_TS11
 62
143
 10
        4.80060
 20
        0.00000
 30
        5.94342
 11
        4.80060
 21
        0.00000
 31
        4.41942
 12
        6.62940
 22
        0.00000
 32
        4.41942
 13
        6.62940
 23
        0.00000
 33
        5.94342
999
SOUTH PERIM SPC TS11:SOUTH WIN - LEFT (T.S11.E9.W3)
  0
3DFACE
  8
SOUTH_PERIM_SPC_TS11
 62
143
 10
        8.61060
 20
        0.00000
 30
        5.94342
 11
        8.61060
 21
        0.00000
 31
        4.41942
 12
       10.43940
 22
        0.00000
 32
        4.41942
 13
       10.43940
 23
        0.00000
 33
        5.94342
999
SOUTH PERIM SPC TS11:SOUTH WIN - LEFT (T.S11.E9.W4)
  0
3DFACE
  8
SOUTH_PERIM_SPC_TS11
 62
143
 10
       12.42060
 20
        0.00000
 30
        5.94342
 11
       12.42060
 21
        0.00000
 31
        4.41942
 12
       14.24940
 22
        0.00000
 32
        4.41942
 13
       14.24940
 23
        0.00000
 33
        5.94342
999
SOUTH PERIM SPC TS11:SOUTH WIN - LEFT (T.S11.E9.W5)
  0
3DFACE
  8
SOUTH_PERIM_SPC_TS11
 62
143
 10
       16.23060
 20
        0.00000
 30
        5.94342
 11
       16.23060
 21
        0.00000
 31
        4.41942
 12
       18.05940
 22
        0.00000
 32
        4.41942
 13
       18.05940
 23
        0.00000
 33
        5.94342
999
SOUTH PERIM SPC TS11:SOUTH WIN - LEFT (T.S11.E9.W6)
  0
3DFACE
  8
SOUTH_PERIM_SPC_TS11
 62
143
 10
       20.04060
 20
        0.00000
 30
        5.94342
 11
       20.04060
 21
        0.00000
 31
        4.41942
 12
       21.86940
 22
        0.00000
 32
        4.41942
 13
       21.86940
 23
        0.00000
 33
        5.94342
999
SOUTH PERIM SPC TS11:SOUTH WIN - LEFT (T.S11.E9.W7)
  0
3DFACE
  8
SOUTH_PERIM_SPC_TS11
 62
143
 10
       23.85060
 20
        0.00000
 30
        5.94342
 11
       23.85060
 21
        0.00000
 31
        4.41942
 12
       25.67940
 22
        0.00000
 32
        4.41942
 13
       25.67940
 23
        0.00000
 33
        5.94342
999
SOUTH PERIM SPC TS11:NE WALL (T.S11.I23)
  0
3DFACE
  8
SOUTH_PERIM_SPC_TS11
 62
 43
 10
       30.47851
 20
        0.00000
 30
        6.40049
 11
       30.47851
 21
        0.00000
 31
        3.65742
 12
       26.82109
 22
        3.65742
 32
        3.65742
 13
       26.82109
 23
        3.65742
 33
        6.40049
999
SOUTH PERIM SPC TS11:NORTH WALL (T.S11.I24)
  0
3DFACE
  8
SOUTH_PERIM_SPC_TS11
 62
 43
 10
       26.82109
 20
        3.65742
 30
        6.40049
 11
       26.82109
 21
        3.65742
 31
        3.65742
 12
        3.65742
 22
        3.65742
 32
        3.65742
 13
        3.65742
 23
        3.65742
 33
        6.40049
999
SOUTH PERIM SPC TS11:NW WALL (T.S11.I25)
  0
3DFACE
  8
SOUTH_PERIM_SPC_TS11
 62
 43
 10
        3.65742
 20
        3.65742
 30
        6.40049
 11
        3.65742
 21
        3.65742
 31
        3.65742
 12
        0.00000
 22
        0.00000
 32
        3.65742
 13
        0.00000
 23
        0.00000
 33
        6.40049
999
SOUTH PERIM SPC TS11:FLR (T.S11.I22)
  0
3DFACE
  8
SOUTH_PERIM_SPC_TS11
 62
  8
 10
       30.47851
 20
        0.00000
 30
        3.65742
 11
        0.00000
 21
        0.00000
 31
        3.65742
 12
        3.65742
 22
        3.65742
 32
        3.65742
 13
       26.82109
 23
        3.65742
 33
        3.65742
999
SOUTH PERIM SPC TS11:CEILING (T.S11.I26)
  0
3DFACE
  8
SOUTH_PERIM_SPC_TS11
 62
 15
 10
        0.00000
 20
        0.00000
 30
        6.40049
 11
       30.47851
 21
        0.00000
 31
        6.40049
 12
       26.82109
 22
        3.65742
 32
        6.40049
 13
        3.65742
 23
        3.65742
 33
        6.40049
999
EAST PERIM SPC TE12:EAST WALL (T.E12.E10)
  0
3DFACE
  8
EAST_PERIM_SPC_TE12
 62
 43
 10
       30.47851
 20
        0.00000
 30
        6.40049
 11
       30.47851
 21
        0.00000
 31
        3.65742
 12
       30.47851
 22
       30.47851
 32
        3.65742
 13
       30.47851
 23
       30.47851
 33
        6.40049
999
EAST PERIM SPC TE12:EAST WIN - LEFT (T.E12.E10.W8)
  0
3DFACE
  8
EAST_PERIM_SPC_TE12
 62
143
 10
       30.47851
 20
       27.66060
 30
        5.94342
 11
       30.47851
 21
       27.66060
 31
        4.41942
 12
       30.47851
 22
       29.48940
 32
        4.41942
 13
       30.47851
 23
       29.48940
 33
        5.94342
999
EAST PERIM SPC TE12:EAST WIN - LEFT (T.E12.E10.W1)
  0
3DFACE
  8
EAST_PERIM_SPC_TE12
 62
143
 10
       30.47851
 20
        0.99060
 30
        5.94342
 11
       30.47851
 21
        0.99060
 31
        4.41942
 12
       30.47851
 22
        2.81940
 32
        4.41942
 13
       30.47851
 23
        2.81940
 33
        5.94342
999
EAST PERIM SPC TE12:EAST WIN - LEFT (T.E12.E10.W2)
  0
3DFACE
  8
EAST_PERIM_SPC_TE12
 62
143
 10
       30.47851
 20
        4.80060
 30
        5.94342
 11
       30.47851
 21
        4.80060
 31
        4.41942
 12
       30.47851
 22
        6.62940
 32
        4.41942
 13
       30.47851
 23
        6.62940
 33
        5.94342
999
EAST PERIM SPC TE12:EAST WIN - LEFT (T.E12.E10.W3)
  0
3DFACE
  8
EAST_PERIM_SPC_TE12
 62
143
 10
       30.47851
 20
        8.61060
 30
        5.94342
 11
       30.47851
 21
        8.61060
 31
        4.41942
 12
       30.47851
 22
       10.43940
 32
        4.41942
 13
       30.47851
 23
       10.43940
 33
        5.94342
999
EAST PERIM SPC TE12:EAST WIN - LEFT (T.E12.E10.W4)
  0
3DFACE
  8
EAST_PERIM_SPC_TE12
 62
143
 10
       30.47851
 20
       12.42060
 30
        5.94342
 11
       30.47851
 21
       12.42060
 31
        4.41942
 12
       30.47851
 22
       14.24940
 32
        4.41942
 13
       30.47851
 23
       14.24940
 33
        5.94342
999
EAST PERIM SPC TE12:EAST WIN - LEFT (T.E12.E10.W5)
  0
3DFACE
  8
EAST_PERIM_SPC_TE12
 62
143
 10
       30.47851
 20
       16.23060
 30
        5.94342
 11
       30.47851
 21
       16.23060
 31
        4.41942
 12
       30.47851
 22
       18.05940
 32
        4.41942
 13
       30.47851
 23
       18.05940
 33
        5.94342
999
EAST PERIM SPC TE12:EAST WIN - LEFT (T.E12.E10.W6)
  0
3DFACE
  8
EAST_PERIM_SPC_TE12
 62
143
 10
       30.47851
 20
       20.04060
 30
        5.94342
 11
       30.47851
 21
       20.04060
 31
        4.41942
 12
       30.47851
 22
       21.86940
 32
        4.41942
 13
       30.47851
 23
       21.86940
 33
        5.94342
999
EAST PERIM SPC TE12:EAST WIN - LEFT (T.E12.E10.W7)
  0
3DFACE
  8
EAST_PERIM_SPC_TE12
 62
143
 10
       30.47851
 20
       23.85060
 30
        5.94342
 11
       30.47851
 21
       23.85060
 31
        4.41942
 12
       30.47851
 22
       25.67940
 32
        4.41942
 13
       30.47851
 23
       25.67940
 33
        5.94342
999
EAST PERIM SPC TE12:NW WALL (T.E12.I28)
  0
3DFACE
  8
EAST_PERIM_SPC_TE12
 62
 43
 10
       30.47851
 20
       30.47851
 30
        6.40049
 11
       30.47851
 21
       30.47851
 31
        3.65742
 12
       26.82109
 22
       26.82109
 32
        3.65742
 13
       26.82109
 23
       26.82109
 33
        6.40049
999
EAST PERIM SPC TE12:WEST WALL (T.E12.I29)
  0
3DFACE
  8
EAST_PERIM_SPC_TE12
 62
 43
 10
       26.82109
 20
       26.82109
 30
        6.40049
 11
       26.82109
 21
       26.82109
 31
        3.65742
 12
       26.82109
 22
        3.65742
 32
        3.65742
 13
       26.82109
 23
        3.65742
 33
        6.40049
999
EAST PERIM SPC TE12:iz-NE WALL (T.S11.I23)
  0
3DFACE
  8
EAST_PERIM_SPC_TE12
 62
 43
 10
       26.82109
 20
        3.65742
 30
        6.40049
 11
       26.82109
 21
        3.65742
 31
        3.65742
 12
       30.47851
 22
        0.00000
 32
        3.65742
 13
       30.47851
 23
        0.00000
 33
        6.40049
999
EAST PERIM SPC TE12:FLR (T.E12.I27)
  0
3DFACE
  8
EAST_PERIM_SPC_TE12
 62
  8
 10
       30.47851
 20
       30.47851
 30
        3.65742
 11
       30.47851
 21
        0.00000
 31
        3.65742
 12
       26.82109
 22
        3.65742
 32
        3.65742
 13
       26.82109
 23
       26.82109
 33
        3.65742
999
EAST PERIM SPC TE12:CEILING (T.E12.I30)
  0
3DFACE
  8
EAST_PERIM_SPC_TE12
 62
 15
 10
       30.47851
 20
       30.47851
 30
        6.40049
 11
       26.82109
 21
       26.82109
 31
        6.40049
 12
       26.82109
 22
        3.65742
 32
        6.40049
 13
       30.47851
 23
        0.00000
 33
        6.40049
999
NORTH PERIM SPC TN13:NORTH WALL (T.N13.E11)
  0
3DFACE
  8
NORTH_PERIM_SPC_TN13
 62
 43
 10
       30.47851
 20
       30.47851
 30
        6.40049
 11
       30.47851
 21
       30.47851
 31
        3.65742
 12
        0.00000
 22
       30.47851
 32
        3.65742
 13
        0.00000
 23
       30.47851
 33
        6.40049
999
NORTH PERIM SPC TN13:NORTH WIN - LEFT (T.N13.E11.W8)
  0
3DFACE
  8
NORTH_PERIM_SPC_TN13
 62
143
 10
        2.81791
 20
       30.47851
 30
        5.94342
 11
        2.81791
 21
       30.47851
 31
        4.41942
 12
        0.98911
 22
       30.47851
 32
        4.41942
 13
        0.98911
 23
       30.47851
 33
        5.94342
999
NORTH PERIM SPC TN13:NORTH WIN - LEFT (T.N13.E11.W1)
  0
3DFACE
  8
NORTH_PERIM_SPC_TN13
 62
143
 10
       29.48791
 20
       30.47851
 30
        5.94342
 11
       29.48791
 21
       30.47851
 31
        4.41942
 12
       27.65911
 22
       30.47851
 32
        4.41942
 13
       27.65911
 23
       30.47851
 33
        5.94342
999
NORTH PERIM SPC TN13:NORTH WIN - LEFT (T.N13.E11.W2)
  0
3DFACE
  8
NORTH_PERIM_SPC_TN13
 62
143
 10
       25.67791
 20
       30.47851
 30
        5.94342
 11
       25.67791
 21
       30.47851
 31
        4.41942
 12
       23.84911
 22
       30.47851
 32
        4.41942
 13
       23.84911
 23
       30.47851
 33
        5.94342
999
NORTH PERIM SPC TN13:NORTH WIN - LEFT (T.N13.E11.W3)
  0
3DFACE
  8
NORTH_PERIM_SPC_TN13
 62
143
 10
       21.86791
 20
       30.47851
 30
        5.94342
 11
       21.86791
 21
       30.47851
 31
        4.41942
 12
       20.03911
 22
       30.47851
 32
        4.41942
 13
       20.03911
 23
       30.47851
 33
        5.94342
999
NORTH PERIM SPC TN13:NORTH WIN - LEFT (T.N13.E11.W4)
  0
3DFACE
  8
NORTH_PERIM_SPC_TN13
 62
143
 10
       18.05791
 20
       30.47851
 30
        5.94342
 11
       18.05791
 21
       30.47851
 31
        4.41942
 12
       16.22911
 22
       30.47851
 32
        4.41942
 13
       16.22911
 23
       30.47851
 33
        5.94342
999
NORTH PERIM SPC TN13:NORTH WIN - LEFT (T.N13.E11.W5)
  0
3DFACE
  8
NORTH_PERIM_SPC_TN13
 62
143
 10
       14.24791
 20
       30.47851
 30
        5.94342
 11
       14.24791
 21
       30.47851
 31
        4.41942
 12
       12.41911
 22
       30.47851
 32
        4.41942
 13
       12.41911
 23
       30.47851
 33
        5.94342
999
NORTH PERIM SPC TN13:NORTH WIN - LEFT (T.N13.E11.W6)
  0
3DFACE
  8
NORTH_PERIM_SPC_TN13
 62
143
 10
       10.43791
 20
       30.47851
 30
        5.94342
 11
       10.43791
 21
       30.47851
 31
        4.41942
 12
        8.60911
 22
       30.47851
 32
        4.41942
 13
        8.60911
 23
       30.47851
 33
        5.94342
999
NORTH PERIM SPC TN13:NORTH WIN - LEFT (T.N13.E11.W7)
  0
3DFACE
  8
NORTH_PERIM_SPC_TN13
 62
143
 10
        6.62791
 20
       30.47851
 30
        5.94342
 11
        6.62791
 21
       30.47851
 31
        4.41942
 12
        4.79911
 22
       30.47851
 32
        4.41942
 13
        4.79911
 23
       30.47851
 33
        5.94342
999
NORTH PERIM SPC TN13:SW WALL (T.N13.I32)
  0
3DFACE
  8
NORTH_PERIM_SPC_TN13
 62
 43
 10
        0.00000
 20
       30.47851
 30
        6.40049
 11
        0.00000
 21
       30.47851
 31
        3.65742
 12
        3.65742
 22
       26.82109
 32
        3.65742
 13
        3.65742
 23
       26.82109
 33
        6.40049
999
NORTH PERIM SPC TN13:SOUTH WALL (T.N13.I33)
  0
3DFACE
  8
NORTH_PERIM_SPC_TN13
 62
 43
 10
        3.65742
 20
       26.82109
 30
        6.40049
 11
        3.65742
 21
       26.82109
 31
        3.65742
 12
       26.82109
 22
       26.82109
 32
        3.65742
 13
       26.82109
 23
       26.82109
 33
        6.40049
999
NORTH PERIM SPC TN13:iz-NW WALL (T.E12.I28)
  0
3DFACE
  8
NORTH_PERIM_SPC_TN13
 62
 43
 10
       26.82109
 20
       26.82109
 30
        6.40049
 11
       26.82109
 21
       26.82109
 31
        3.65742
 12
       30.47851
 22
       30.47851
 32
        3.65742
 13
       30.47851
 23
       30.47851
 33
        6.40049
999
NORTH PERIM SPC TN13:FLR (T.N13.I31)
  0
3DFACE
  8
NORTH_PERIM_SPC_TN13
 62
  8
 10
       30.47851
 20
       30.47851
 30
        3.65742
 11
       26.82109
 21
       26.82109
 31
        3.65742
 12
        3.65742
 22
       26.82109
 32
        3.65742
 13
        0.00000
 23
       30.47851
 33
        3.65742
999
NORTH PERIM SPC TN13:CEILING (T.N13.I34)
  0
3DFACE
  8
NORTH_PERIM_SPC_TN13
 62
 15
 10
        0.00000
 20
       30.47851
 30
        6.40049
 11
        3.65742
 21
       26.82109
 31
        6.40049
 12
       26.82109
 22
       26.82109
 32
        6.40049
 13
       30.47851
 23
       30.47851
 33
        6.40049
999
WEST PERIM SPC TW14:WEST WALL (T.W14.E12)
  0
3DFACE
  8
WEST_PERIM_SPC_TW14
 62
 43
 10
        0.00000
 20
       30.47851
 30
        6.40049
 11
        0.00000
 21
       30.47851
 31
        3.65742
 12
        0.00000
 22
        0.00000
 32
        3.65742
 13
        0.00000
 23
        0.00000
 33
        6.40049
999
WEST PERIM SPC TW14:WEST WIN - LEFT (T.W14.E12.W8)
  0
3DFACE
  8
WEST_PERIM_SPC_TW14
 62
143
 10
        0.00000
 20
        2.81791
 30
        5.94342
 11
        0.00000
 21
        2.81791
 31
        4.41942
 12
        0.00000
 22
        0.98911
 32
        4.41942
 13
        0.00000
 23
        0.98911
 33
        5.94342
999
WEST PERIM SPC TW14:WEST WIN - LEFT (T.W14.E12.W1)
  0
3DFACE
  8
WEST_PERIM_SPC_TW14
 62
143
 10
        0.00000
 20
       29.48791
 30
        5.94342
 11
        0.00000
 21
       29.48791
 31
        4.41942
 12
        0.00000
 22
       27.65911
 32
        4.41942
 13
        0.00000
 23
       27.65911
 33
        5.94342
999
WEST PERIM SPC TW14:WEST WIN - LEFT (T.W14.E12.W2)
  0
3DFACE
  8
WEST_PERIM_SPC_TW14
 62
143
 10
        0.00000
 20
       25.67791
 30
        5.94342
 11
        0.00000
 21
       25.67791
 31
        4.41942
 12
        0.00000
 22
       23.84911
 32
        4.41942
 13
        0.00000
 23
       23.84911
 33
        5.94342
999
WEST PERIM SPC TW14:WEST WIN - LEFT (T.W14.E12.W3)
  0
3DFACE
  8
WEST_PERIM_SPC_TW14
 62
143
 10
        0.00000
 20
       21.86791
 30
        5.94342
 11
        0.00000
 21
       21.86791
 31
        4.41942
 12
        0.00000
 22
       20.03911
 32
        4.41942
 13
        0.00000
 23
       20.03911
 33
        5.94342
999
WEST PERIM SPC TW14:WEST WIN - LEFT (T.W14.E12.W4)
  0
3DFACE
  8
WEST_PERIM_SPC_TW14
 62
143
 10
        0.00000
 20
       18.05791
 30
        5.94342
 11
        0.00000
 21
       18.05791
 31
        4.41942
 12
        0.00000
 22
       16.22911
 32
        4.41942
 13
        0.00000
 23
       16.22911
 33
        5.94342
999
WEST PERIM SPC TW14:WEST WIN - LEFT (T.W14.E12.W5)
  0
3DFACE
  8
WEST_PERIM_SPC_TW14
 62
143
 10
        0.00000
 20
       14.24791
 30
        5.94342
 11
        0.00000
 21
       14.24791
 31
        4.41942
 12
        0.00000
 22
       12.41911
 32
        4.41942
 13
        0.00000
 23
       12.41911
 33
        5.94342
999
WEST PERIM SPC TW14:WEST WIN - LEFT (T.W14.E12.W6)
  0
3DFACE
  8
WEST_PERIM_SPC_TW14
 62
143
 10
        0.00000
 20
       10.43791
 30
        5.94342
 11
        0.00000
 21
       10.43791
 31
        4.41942
 12
        0.00000
 22
        8.60911
 32
        4.41942
 13
        0.00000
 23
        8.60911
 33
        5.94342
999
WEST PERIM SPC TW14:WEST WIN - LEFT (T.W14.E12.W7)
  0
3DFACE
  8
WEST_PERIM_SPC_TW14
 62
143
 10
        0.00000
 20
        6.62791
 30
        5.94342
 11
        0.00000
 21
        6.62791
 31
        4.41942
 12
        0.00000
 22
        4.79911
 32
        4.41942
 13
        0.00000
 23
        4.79911
 33
        5.94342
999
WEST PERIM SPC TW14:EAST WALL (T.W14.I36)
  0
3DFACE
  8
WEST_PERIM_SPC_TW14
 62
 43
 10
        3.65742
 20
        3.65742
 30
        6.40049
 11
        3.65742
 21
        3.65742
 31
        3.65742
 12
        3.65742
 22
       26.82109
 32
        3.65742
 13
        3.65742
 23
       26.82109
 33
        6.40049
999
WEST PERIM SPC TW14:iz-NW WALL (T.S11.I25)
  0
3DFACE
  8
WEST_PERIM_SPC_TW14
 62
 43
 10
        0.00000
 20
        0.00000
 30
        6.40049
 11
        0.00000
 21
        0.00000
 31
        3.65742
 12
        3.65742
 22
        3.65742
 32
        3.65742
 13
        3.65742
 23
        3.65742
 33
        6.40049
999
WEST PERIM SPC TW14:iz-SW WALL (T.N13.I32)
  0
3DFACE
  8
WEST_PERIM_SPC_TW14
 62
 43
 10
        3.65742
 20
       26.82109
 30
        6.40049
 11
        3.65742
 21
       26.82109
 31
        3.65742
 12
        0.00000
 22
       30.47851
 32
        3.65742
 13
        0.00000
 23
       30.47851
 33
        6.40049
999
WEST PERIM SPC TW14:FLR (T.W14.I35)
  0
3DFACE
  8
WEST_PERIM_SPC_TW14
 62
  8
 10
        0.00000
 20
       30.47851
 30
        3.65742
 11
        3.65742
 21
       26.82109
 31
        3.65742
 12
        3.65742
 22
        3.65742
 32
        3.65742
 13
        0.00000
 23
        0.00000
 33
        3.65742
999
WEST PERIM SPC TW14:CEILING (T.W14.I37)
  0
3DFACE
  8
WEST_PERIM_SPC_TW14
 62
 15
 10
        0.00000
 20
       30.47851
 30
        6.40049
 11
        0.00000
 21
        0.00000
 31
        6.40049
 12
        3.65742
 22
        3.65742
 32
        6.40049
 13
        3.65742
 23
       26.82109
 33
        6.40049
999
CORE SPC TC15:iz-NORTH WALL (T.S11.I24)
  0
3DFACE
  8
CORE_SPC_TC15
 62
 43
 10
        3.65742
 20
        3.65742
 30
        6.40049
 11
        3.65742
 21
        3.65742
 31
        3.65742
 12
       26.82109
 22
        3.65742
 32
        3.65742
 13
       26.82109
 23
        3.65742
 33
        6.40049
999
CORE SPC TC15:iz-WEST WALL (T.E12.I29)
  0
3DFACE
  8
CORE_SPC_TC15
 62
 43
 10
       26.82109
 20
        3.65742
 30
        6.40049
 11
       26.82109
 21
        3.65742
 31
        3.65742
 12
       26.82109
 22
       26.82109
 32
        3.65742
 13
       26.82109
 23
       26.82109
 33
        6.40049
999
CORE SPC TC15:iz-SOUTH WALL (T.N13.I33)
  0
3DFACE
  8
CORE_SPC_TC15
 62
 43
 10
       26.82109
 20
       26.82109
 30
        6.40049
 11
       26.82109
 21
       26.82109
 31
        3.65742
 12
        3.65742
 22
       26.82109
 32
        3.65742
 13
        3.65742
 23
       26.82109
 33
        6.40049
999
CORE SPC TC15:iz-EAST WALL (T.W14.I36)
  0
3DFACE
  8
CORE_SPC_TC15
 62
 43
 10
        3.65742
 20
       26.82109
 30
        6.40049
 11
        3.65742
 21
       26.82109
 31
        3.65742
 12
        3.65742
 22
        3.65742
 32
        3.65742
 13
        3.65742
 23
        3.65742
 33
        6.40049
999
CORE SPC TC15:FLR (T.C15.I38)
  0
3DFACE
  8
CORE_SPC_TC15
 62
  8
 10
       26.82109
 20
       26.82109
 30
        3.65742
 11
       26.82109
 21
        3.65742
 31
        3.65742
 12
        3.65742
 22
        3.65742
 32
        3.65742
 13
        3.65742
 23
       26.82109
 33
        3.65742
999
CORE SPC TC15:CEILING (T.C15.I39)
  0
3DFACE
  8
CORE_SPC_TC15
 62
 15
 10
        3.65742
 20
       26.82109
 30
        6.40049
 11
        3.65742
 21
        3.65742
 31
        6.40049
 12
       26.82109
 22
        3.65742
 32
        6.40049
 13
       26.82109
 23
       26.82109
 33
        6.40049
999
SOUTH PERIM PLNM TS16:SOUTH WALL (T.S16.E13)
  0
3DFACE
  8
SOUTH_PERIM_PLNM_TS16
 62
 43
 10
        0.00000
 20
        0.00000
 30
        7.31484
 11
        0.00000
 21
        0.00000
 31
        6.40049
 12
       30.47851
 22
        0.00000
 32
        6.40049
 13
       30.47851
 23
        0.00000
 33
        7.31484
999
SOUTH PERIM PLNM TS16:NE WALL (T.S16.I40)
  0
3DFACE
  8
SOUTH_PERIM_PLNM_TS16
 62
 43
 10
       30.47851
 20
        0.00000
 30
        7.31484
 11
       30.47851
 21
        0.00000
 31
        6.40049
 12
       26.82109
 22
        3.65742
 32
        6.40049
 13
       26.82109
 23
        3.65742
 33
        7.31484
999
SOUTH PERIM PLNM TS16:NORTH WALL (T.S16.I41)
  0
3DFACE
  8
SOUTH_PERIM_PLNM_TS16
 62
 43
 10
       26.82109
 20
        3.65742
 30
        7.31484
 11
       26.82109
 21
        3.65742
 31
        6.40049
 12
        3.65742
 22
        3.65742
 32
        6.40049
 13
        3.65742
 23
        3.65742
 33
        7.31484
999
SOUTH PERIM PLNM TS16:NW WALL (T.S16.I42)
  0
3DFACE
  8
SOUTH_PERIM_PLNM_TS16
 62
 43
 10
        3.65742
 20
        3.65742
 30
        7.31484
 11
        3.65742
 21
        3.65742
 31
        6.40049
 12
        0.00000
 22
        0.00000
 32
        6.40049
 13
        0.00000
 23
        0.00000
 33
        7.31484
999
SOUTH PERIM PLNM TS16:iz-CEILING (T.S11.I26)
  0
3DFACE
  8
SOUTH_PERIM_PLNM_TS16
 62
  8
 10
        3.65742
 20
        3.65742
 30
        6.40049
 11
       26.82109
 21
        3.65742
 31
        6.40049
 12
       30.47851
 22
        0.00000
 32
        6.40049
 13
        0.00000
 23
        0.00000
 33
        6.40049
999
SOUTH PERIM PLNM TS16:ROOF (T.S16.E14)
  0
3DFACE
  8
SOUTH_PERIM_PLNM_TS16
 62
 15
 10
        0.00000
 20
        0.00000
 30
        7.31484
 11
       30.47851
 21
        0.00000
 31
        7.31484
 12
       26.82109
 22
        3.65742
 32
        7.31484
 13
        3.65742
 23
        3.65742
 33
        7.31484
999
EAST PERIM PLNM TE17:EAST WALL (T.E17.E15)
  0
3DFACE
  8
EAST_PERIM_PLNM_TE17
 62
 43
 10
       30.47851
 20
        0.00000
 30
        7.31484
 11
       30.47851
 21
        0.00000
 31
        6.40049
 12
       30.47851
 22
       30.47851
 32
        6.40049
 13
       30.47851
 23
       30.47851
 33
        7.31484
999
EAST PERIM PLNM TE17:NW WALL (T.E17.I43)
  0
3DFACE
  8
EAST_PERIM_PLNM_TE17
 62
 43
 10
       30.47851
 20
       30.47851
 30
        7.31484
 11
       30.47851
 21
       30.47851
 31
        6.40049
 12
       26.82109
 22
       26.82109
 32
        6.40049
 13
       26.82109
 23
       26.82109
 33
        7.31484
999
EAST PERIM PLNM TE17:WEST WALL (T.E17.I44)
  0
3DFACE
  8
EAST_PERIM_PLNM_TE17
 62
 43
 10
       26.82109
 20
       26.82109
 30
        7.31484
 11
       26.82109
 21
       26.82109
 31
        6.40049
 12
       26.82109
 22
        3.65742
 32
        6.40049
 13
       26.82109
 23
        3.65742
 33
        7.31484
999
EAST PERIM PLNM TE17:iz-NE WALL (T.S16.I40)
  0
3DFACE
  8
EAST_PERIM_PLNM_TE17
 62
 43
 10
       26.82109
 20
        3.65742
 30
        7.31484
 11
       26.82109
 21
        3.65742
 31
        6.40049
 12
       30.47851
 22
        0.00000
 32
        6.40049
 13
       30.47851
 23
        0.00000
 33
        7.31484
999
EAST PERIM PLNM TE17:iz-CEILING (T.E12.I30)
  0
3DFACE
  8
EAST_PERIM_PLNM_TE17
 62
  8
 10
       30.47851
 20
        0.00000
 30
        6.40049
 11
       26.82109
 21
        3.65742
 31
        6.40049
 12
       26.82109
 22
       26.82109
 32
        6.40049
 13
       30.47851
 23
       30.47851
 33
        6.40049
999
EAST PERIM PLNM TE17:ROOF (T.E17.E16)
  0
3DFACE
  8
EAST_PERIM_PLNM_TE17
 62
 15
 10
       30.47851
 20
       30.47851
 30
        7.31484
 11
       26.82109
 21
       26.82109
 31
        7.31484
 12
       26.82109
 22
        3.65742
 32
        7.31484
 13
       30.47851
 23
        0.00000
 33
        7.31484
999
NORTH PERIM PLNM TN18:NORTH WALL (T.N18.E17)
  0
3DFACE
  8
NORTH_PERIM_PLNM_TN18
 62
 43
 10
       30.47851
 20
       30.47851
 30
        7.31484
 11
       30.47851
 21
       30.47851
 31
        6.40049
 12
        0.00000
 22
       30.47851
 32
        6.40049
 13
        0.00000
 23
       30.47851
 33
        7.31484
999
NORTH PERIM PLNM TN18:SW WALL (T.N18.I45)
  0
3DFACE
  8
NORTH_PERIM_PLNM_TN18
 62
 43
 10
        0.00000
 20
       30.47851
 30
        7.31484
 11
        0.00000
 21
       30.47851
 31
        6.40049
 12
        3.65742
 22
       26.82109
 32
        6.40049
 13
        3.65742
 23
       26.82109
 33
        7.31484
999
NORTH PERIM PLNM TN18:SOUTH WALL (T.N18.I46)
  0
3DFACE
  8
NORTH_PERIM_PLNM_TN18
 62
 43
 10
        3.65742
 20
       26.82109
 30
        7.31484
 11
        3.65742
 21
       26.82109
 31
        6.40049
 12
       26.82109
 22
       26.82109
 32
        6.40049
 13
       26.82109
 23
       26.82109
 33
        7.31484
999
NORTH PERIM PLNM TN18:iz-NW WALL (T.E17.I43)
  0
3DFACE
  8
NORTH_PERIM_PLNM_TN18
 62
 43
 10
       26.82109
 20
       26.82109
 30
        7.31484
 11
       26.82109
 21
       26.82109
 31
        6.40049
 12
       30.47851
 22
       30.47851
 32
        6.40049
 13
       30.47851
 23
       30.47851
 33
        7.31484
999
NORTH PERIM PLNM TN18:iz-CEILING (T.N13.I34)
  0
3DFACE
  8
NORTH_PERIM_PLNM_TN18
 62
  8
 10
       30.47851
 20
       30.47851
 30
        6.40049
 11
       26.82109
 21
       26.82109
 31
        6.40049
 12
        3.65742
 22
       26.82109
 32
        6.40049
 13
        0.00000
 23
       30.47851
 33
        6.40049
999
NORTH PERIM PLNM TN18:ROOF (T.N18.E18)
  0
3DFACE
  8
NORTH_PERIM_PLNM_TN18
 62
 15
 10
        0.00000
 20
       30.47851
 30
        7.31484
 11
        3.65742
 21
       26.82109
 31
        7.31484
 12
       26.82109
 22
       26.82109
 32
        7.31484
 13
       30.47851
 23
       30.47851
 33
        7.31484
999
WEST PERIM PLNM TW19:WEST WALL (T.W19.E19)
  0
3DFACE
  8
WEST_PERIM_PLNM_TW19
 62
 43
 10
        0.00000
 20
       30.47851
 30
        7.31484
 11
        0.00000
 21
       30.47851
 31
        6.40049
 12
        0.00000
 22
        0.00000
 32
        6.40049
 13
        0.00000
 23
        0.00000
 33
        7.31484
999
WEST PERIM PLNM TW19:EAST WALL (T.W19.I47)
  0
3DFACE
  8
WEST_PERIM_PLNM_TW19
 62
 43
 10
        3.65742
 20
        3.65742
 30
        7.31484
 11
        3.65742
 21
        3.65742
 31
        6.40049
 12
        3.65742
 22
       26.82109
 32
        6.40049
 13
        3.65742
 23
       26.82109
 33
        7.31484
999
WEST PERIM PLNM TW19:iz-NW WALL (T.S16.I42)
  0
3DFACE
  8
WEST_PERIM_PLNM_TW19
 62
 43
 10
        0.00000
 20
        0.00000
 30
        7.31484
 11
        0.00000
 21
        0.00000
 31
        6.40049
 12
        3.65742
 22
        3.65742
 32
        6.40049
 13
        3.65742
 23
        3.65742
 33
        7.31484
999
WEST PERIM PLNM TW19:iz-SW WALL (T.N18.I45)
  0
3DFACE
  8
WEST_PERIM_PLNM_TW19
 62
 43
 10
        3.65742
 20
       26.82109
 30
        7.31484
 11
        3.65742
 21
       26.82109
 31
        6.40049
 12
        0.00000
 22
       30.47851
 32
        6.40049
 13
        0.00000
 23
       30.47851
 33
        7.31484
999
WEST PERIM PLNM TW19:iz-CEILING (T.W14.I37)
  0
3DFACE
  8
WEST_PERIM_PLNM_TW19
 62
  8
 10
        3.65742
 20
       26.82109
 30
        6.40049
 11
        3.65742
 21
        3.65742
 31
        6.40049
 12
        0.00000
 22
        0.00000
 32
        6.40049
 13
        0.00000
 23
       30.47851
 33
        6.40049
999
WEST PERIM PLNM TW19:ROOF (T.W19.E20)
  0
3DFACE
  8
WEST_PERIM_PLNM_TW19
 62
 15
 10
        0.00000
 20
       30.47851
 30
        7.31484
 11
        0.00000
 21
        0.00000
 31
        7.31484
 12
        3.65742
 22
        3.65742
 32
        7.31484
 13
        3.65742
 23
       26.82109
 33
        7.31484
999
CORE PLNM TC20:iz-NORTH WALL (T.S16.I41)
  0
3DFACE
  8
CORE_PLNM_TC20
 62
 43
 10
        3.65742
 20
        3.65742
 30
        7.31484
 11
        3.65742
 21
        3.65742
 31
        6.40049
 12
       26.82109
 22
        3.65742
 32
        6.40049
 13
       26.82109
 23
        3.65742
 33
        7.31484
999
CORE PLNM TC20:iz-WEST WALL (T.E17.I44)
  0
3DFACE
  8
CORE_PLNM_TC20
 62
 43
 10
       26.82109
 20
        3.65742
 30
        7.31484
 11
       26.82109
 21
        3.65742
 31
        6.40049
 12
       26.82109
 22
       26.82109
 32
        6.40049
 13
       26.82109
 23
       26.82109
 33
        7.31484
999
CORE PLNM TC20:iz-SOUTH WALL (T.N18.I46)
  0
3DFACE
  8
CORE_PLNM_TC20
 62
 43
 10
       26.82109
 20
       26.82109
 30
        7.31484
 11
       26.82109
 21
       26.82109
 31
        6.40049
 12
        3.65742
 22
       26.82109
 32
        6.40049
 13
        3.65742
 23
       26.82109
 33
        7.31484
999
CORE PLNM TC20:iz-EAST WALL (T.W19.I47)
  0
3DFACE
  8
CORE_PLNM_TC20
 62
 43
 10
        3.65742
 20
       26.82109
 30
        7.31484
 11
        3.65742
 21
       26.82109
 31
        6.40049
 12
        3.65742
 22
        3.65742
 32
        6.40049
 13
        3.65742
 23
        3.65742
 33
        7.31484
999
CORE PLNM TC20:iz-CEILING (T.C15.I39)
  0
3DFACE
  8
CORE_PLNM_TC20
 62
  8
 10
       26.82109
 20
       26.82109
 30
        6.40049
 11
       26.82109
 21
        3.65742
 31
        6.40049
 12
        3.65742
 22
        3.65742
 32
        6.40049
 13
        3.65742
 23
       26.82109
 33
        6.40049
999
CORE PLNM TC20:ROOF (T.C20.E21)
  0
3DFACE
  8
CORE_PLNM_TC20
 62
 15
 10
        3.65742
 20
       26.82109
 30
        7.31484
 11
        3.65742
 21
        3.65742
 31
        7.31484
 12
       26.82109
 22
        3.65742
 32
        7.31484
 13
       26.82109
 23
       26.82109
 33
        7.31484
999
SOUTH PERIM SPC GS1:DayRefPt:1
  0
CIRCLE
  8
SOUTH_PERIM_SPC_GS1
 62
 10
 10
       13.33500
 20
        2.43822
 30
        0.90000
 40
        0.20000
999
EAST PERIM SPC GE2:DayRefPt:1
  0
CIRCLE
  8
EAST_PERIM_SPC_GE2
 62
 10
 10
       28.04029
 20
       13.33500
 30
        0.90000
 40
        0.20000
999
NORTH PERIM SPC GN3:DayRefPt:1
  0
CIRCLE
  8
NORTH_PERIM_SPC_GN3
 62
 10
 10
       17.14351
 20
       28.04029
 30
        0.90000
 40
        0.20000
999
WEST PERIM SPC GW4:DayRefPt:1
  0
CIRCLE
  8
WEST_PERIM_SPC_GW4
 62
 10
 10
        2.43822
 20
       17.14351
 30
        0.90000
 40
        0.20000
999
SOUTH PERIM SPC TS11:DayRefPt:1
  0
CIRCLE
  8
SOUTH_PERIM_SPC_TS11
 62
 10
 10
       13.33500
 20
        2.43822
 30
        4.56000
 40
        0.20000
999
EAST PERIM SPC TE12:DayRefPt:1
  0
CIRCLE
  8
EAST_PERIM_SPC_TE12
 62
 10
 10
       28.04029
 20
       13.33500
 30
        4.56000
 40
        0.20000
999
NORTH PERIM SPC TN13:DayRefPt:1
  0
CIRCLE
  8
NORTH_PERIM_SPC_TN13
 62
 10
 10
       17.14351
 20
       28.04029
 30
        4.56000
 40
        0.20000
999
WEST PERIM SPC TW14:DayRefPt:1
  0
CIRCLE
  8
WEST_PERIM_SPC_TW14
 62
 10
 10
        2.43822
 20
       17.14351
 30
        4.56000
 40
        0.20000
  0
ENDSEC
  0
EOF
