Program Version,EnergyPlus, Version 8.4.0-09f5359d8a, YMD=2022.03.20 22:02
! This file shows details about the branches, nodes, and other
! elements of the flow connections.
! This file is intended for use in "debugging" potential problems
! that may also be detected by the program, but may be more easily
! identified by "eye".
! This file is also intended to support software which draws a
! schematic diagram of the HVAC system.
! ===============================================================
! #Nodes,<Number of Unique Nodes>
 #Nodes,172
! <Node>,<NodeNumber>,<Node Name>,<Node Fluid Type>,<# Times Node Referenced After Definition>
 Node,1,PSZ-1 SOUTH F2 AIR LOOP INLET,Air,3
 Node,2,PSZ-1 SOUTH F2 MIXED AIR OUTLET,Air,6
 Node,3,PSZ-1 SOUTH F2 AIR LOOP OUTLET,Air,6
 Node,4,PSZ-2 EAST F2 AIR LOOP INLET,Air,3
 Node,5,PSZ-2 EAST F2 MIXED AIR OUTLET,Air,6
 Node,6,PSZ-2 EAST F2 AIR LOOP OUTLET,Air,6
 Node,7,PSZ-3 NORTH F2 AIR LOOP INLET,Air,3
 Node,8,PSZ-3 NORTH F2 MIXED AIR OUTLET,Air,6
 Node,9,PSZ-3 NORTH F2 AIR LOOP OUTLET,Air,6
 Node,10,PSZ-4 WEST F2 AIR LOOP INLET,Air,3
 Node,11,PSZ-4 WEST F2 MIXED AIR OUTLET,Air,6
 Node,12,PSZ-4 WEST F2 AIR LOOP OUTLET,Air,6
 Node,13,PSZ-5 CORE F2 AIR LOOP INLET,Air,3
 Node,14,PSZ-5 CORE F2 MIXED AIR OUTLET,Air,6
 Node,15,PSZ-5 CORE F2 AIR LOOP OUTLET,Air,6
 Node,16,PSZ-6 SOUTH F1 AIR LOOP INLET,Air,3
 Node,17,PSZ-6 SOUTH F1 MIXED AIR OUTLET,Air,6
 Node,18,PSZ-6 SOUTH F1 AIR LOOP OUTLET,Air,6
 Node,19,PSZ-7 EAST F1 AIR LOOP INLET,Air,3
 Node,20,PSZ-7 EAST F1 MIXED AIR OUTLET,Air,6
 Node,21,PSZ-7 EAST F1 AIR LOOP OUTLET,Air,6
 Node,22,PSZ-8 NORTH F1 AIR LOOP INLET,Air,3
 Node,23,PSZ-8 NORTH F1 MIXED AIR OUTLET,Air,6
 Node,24,PSZ-8 NORTH F1 AIR LOOP OUTLET,Air,6
 Node,25,PSZ-9 WEST F1 AIR LOOP INLET,Air,3
 Node,26,PSZ-9 WEST F1 MIXED AIR OUTLET,Air,6
 Node,27,PSZ-9 WEST F1 AIR LOOP OUTLET,Air,6
 Node,28,PSZ-10 CORE F1 AIR LOOP INLET,Air,3
 Node,29,PSZ-10 CORE F1 MIXED AIR OUTLET,Air,6
 Node,30,PSZ-10 CORE F1 AIR LOOP OUTLET,Air,6
 Node,31,CORE SPC GC5 WATER EQUIPMENT WATER INLET NODE,Water,1
 Node,32,CORE SPC GC5 WATER EQUIPMENT WATER OUTLET NODE,Water,1
 Node,33,CORE SPC TC15 WATER EQUIPMENT WATER INLET NODE,Water,1
 Node,34,CORE SPC TC15 WATER EQUIPMENT WATER OUTLET NODE,Water,1
 Node,35,SWHSYS1 DEMAND INLET NODE,Water,2
 Node,36,SWHSYS1 DEMAND INLET PIPE-SWHSYS1 DEMAND MIXER,Water,1
 Node,37,SWHSYS1 SUPPLY INLET NODE,Water,2
 Node,38,SWHSYS1 PUMP-SWHSYS1 WATER HEATERNODEVIACONNECTOR,Water,1
 Node,39,SWHSYS1 PUMP-SWHSYS1 WATER HEATERNODE,Water,1
 Node,40,SWHSYS1 SUPPLY EQUIPMENT OUTLET NODE,Water,1
 Node,41,SWHSYS1 SUPPLY EQUIP BYPASS INLET NODE,Water,1
 Node,42,SWHSYS1 SUPPLY EQUIP BYPASS OUTLET NODE,Water,1
 Node,43,SWHSYS1 SUPPLY MIXER-SWHSYS1 SUPPLY OUTLET PIPE,Water,1
 Node,44,SWHSYS1 SUPPLY OUTLET NODE,Water,4
 Node,45,SWHSYS1 DEMAND BYPASS PIPE INLET NODE,Water,1
 Node,46,SWHSYS1 DEMAND BYPASS PIPE OUTLET NODE,Water,1
 Node,47,SWHSYS1 DEMAND MIXER-SWHSYS1 DEMAND OUTLET PIPE,Water,1
 Node,48,SWHSYS1 DEMAND OUTLET NODE,Water,2
 Node,49,PSZ-1 SOUTH F2 OUTSIDE AIR INLET,Air,2
 Node,50,PSZ-2 EAST F2 OUTSIDE AIR INLET,Air,2
 Node,51,PSZ-3 NORTH F2 OUTSIDE AIR INLET,Air,2
 Node,52,PSZ-4 WEST F2 OUTSIDE AIR INLET,Air,2
 Node,53,PSZ-5 CORE F2 OUTSIDE AIR INLET,Air,2
 Node,54,PSZ-6 SOUTH F1 OUTSIDE AIR INLET,Air,2
 Node,55,PSZ-7 EAST F1 OUTSIDE AIR INLET,Air,2
 Node,56,PSZ-8 NORTH F1 OUTSIDE AIR INLET,Air,2
 Node,57,PSZ-9 WEST F1 OUTSIDE AIR INLET,Air,2
 Node,58,PSZ-10 CORE F1 OUTSIDE AIR INLET,Air,2
 Node,59,PSZ-1 SOUTH F2 COOLING COIL CONDENSER INLET,Air,1
 Node,60,PSZ-2 EAST F2 COOLING COIL CONDENSER INLET,Air,1
 Node,61,PSZ-3 NORTH F2 COOLING COIL CONDENSER INLET,Air,1
 Node,62,PSZ-4 WEST F2 COOLING COIL CONDENSER INLET,Air,1
 Node,63,PSZ-5 CORE F2 COOLING COIL CONDENSER INLET,Air,1
 Node,64,PSZ-6 SOUTH F1 COOLING COIL CONDENSER INLET,Air,1
 Node,65,PSZ-7 EAST F1 COOLING COIL CONDENSER INLET,Air,1
 Node,66,PSZ-8 NORTH F1 COOLING COIL CONDENSER INLET,Air,1
 Node,67,PSZ-9 WEST F1 COOLING COIL CONDENSER INLET,Air,1
 Node,68,PSZ-10 CORE F1 COOLING COIL CONDENSER INLET,Air,1
 Node,69,SOUTH PERIM SPC TS11 ZONE AIR NODE,Air,1
 Node,70,SOUTH PERIM SPC TS11 ZONE EQUIP INLET,Air,3
 Node,71,EAST PERIM SPC TE12 ZONE AIR NODE,Air,1
 Node,72,EAST PERIM SPC TE12 ZONE EQUIP INLET,Air,3
 Node,73,NORTH PERIM SPC TN13 ZONE AIR NODE,Air,1
 Node,74,NORTH PERIM SPC TN13 ZONE EQUIP INLET,Air,3
 Node,75,WEST PERIM SPC TW14 ZONE AIR NODE,Air,1
 Node,76,WEST PERIM SPC TW14 ZONE EQUIP INLET,Air,3
 Node,77,CORE SPC TC15 ZONE AIR NODE,Air,1
 Node,78,CORE SPC TC15 ZONE EQUIP INLET,Air,3
 Node,79,SOUTH PERIM SPC GS1 ZONE AIR NODE,Air,1
 Node,80,SOUTH PERIM SPC GS1 ZONE EQUIP INLET,Air,3
 Node,81,EAST PERIM SPC GE2 ZONE AIR NODE,Air,1
 Node,82,EAST PERIM SPC GE2 ZONE EQUIP INLET,Air,3
 Node,83,NORTH PERIM SPC GN3 ZONE AIR NODE,Air,1
 Node,84,NORTH PERIM SPC GN3 ZONE EQUIP INLET,Air,3
 Node,85,WEST PERIM SPC GW4 ZONE AIR NODE,Air,1
 Node,86,WEST PERIM SPC GW4 ZONE EQUIP INLET,Air,3
 Node,87,CORE SPC GC5 ZONE AIR NODE,Air,1
 Node,88,CORE SPC GC5 ZONE EQUIP INLET,Air,3
 Node,89,PSZ-1 SOUTH F2 COOLING COIL OUTLET,Air,2
 Node,90,PSZ-2 EAST F2 COOLING COIL OUTLET,Air,2
 Node,91,PSZ-3 NORTH F2 COOLING COIL OUTLET,Air,2
 Node,92,PSZ-4 WEST F2 COOLING COIL OUTLET,Air,2
 Node,93,PSZ-5 CORE F2 COOLING COIL OUTLET,Air,2
 Node,94,PSZ-6 SOUTH F1 COOLING COIL OUTLET,Air,2
 Node,95,PSZ-7 EAST F1 COOLING COIL OUTLET,Air,2
 Node,96,PSZ-8 NORTH F1 COOLING COIL OUTLET,Air,2
 Node,97,PSZ-9 WEST F1 COOLING COIL OUTLET,Air,2
 Node,98,PSZ-10 CORE F1 COOLING COIL OUTLET,Air,2
 Node,99,SOUTH PERIM SPC GS1 ZONE RETURN PLENUM INLET,Air,1
 Node,100,SOUTH PERIM SPC TS11 ZONE RETURN PLENUM INLET,Air,1
 Node,101,EAST PERIM SPC GE2 ZONE RETURN PLENUM INLET,Air,1
 Node,102,EAST PERIM SPC TE12 ZONE RETURN PLENUM INLET,Air,1
 Node,103,NORTH PERIM SPC GN3 ZONE RETURN PLENUM INLET,Air,1
 Node,104,NORTH PERIM SPC TN13 ZONE RETURN PLENUM INLET,Air,1
 Node,105,WEST PERIM SPC GW4 ZONE RETURN PLENUM INLET,Air,1
 Node,106,WEST PERIM SPC TW14 ZONE RETURN PLENUM INLET,Air,1
 Node,107,CORE SPC GC5 ZONE RETURN PLENUM INLET,Air,1
 Node,108,CORE SPC GC5 EXHAUST FAN NODE,Air,1
 Node,109,CORE SPC TC15 ZONE RETURN PLENUM INLET,Air,1
 Node,110,CORE SPC TC15 EXHAUST FAN NODE,Air,1
 Node,111,PSZ-1 SOUTH F2 SUPPLY PATH INLET,Air,2
 Node,112,PSZ-2 EAST F2 SUPPLY PATH INLET,Air,2
 Node,113,PSZ-3 NORTH F2 SUPPLY PATH INLET,Air,2
 Node,114,PSZ-4 WEST F2 SUPPLY PATH INLET,Air,2
 Node,115,PSZ-5 CORE F2 SUPPLY PATH INLET,Air,2
 Node,116,PSZ-6 SOUTH F1 SUPPLY PATH INLET,Air,2
 Node,117,PSZ-7 EAST F1 SUPPLY PATH INLET,Air,2
 Node,118,PSZ-8 NORTH F1 SUPPLY PATH INLET,Air,2
 Node,119,PSZ-9 WEST F1 SUPPLY PATH INLET,Air,2
 Node,120,PSZ-10 CORE F1 SUPPLY PATH INLET,Air,2
 Node,121,PSZ-1 SOUTH F2 RETURN AIR OUTLET,Air,2
 Node,122,PSZ-2 EAST F2 RETURN AIR OUTLET,Air,2
 Node,123,PSZ-3 NORTH F2 RETURN AIR OUTLET,Air,2
 Node,124,PSZ-4 WEST F2 RETURN AIR OUTLET,Air,2
 Node,125,PSZ-5 CORE F2 RETURN AIR OUTLET,Air,2
 Node,126,PSZ-6 SOUTH F1 RETURN AIR OUTLET,Air,2
 Node,127,PSZ-7 EAST F1 RETURN AIR OUTLET,Air,2
 Node,128,PSZ-8 NORTH F1 RETURN AIR OUTLET,Air,2
 Node,129,PSZ-9 WEST F1 RETURN AIR OUTLET,Air,2
 Node,130,PSZ-10 CORE F1 RETURN AIR OUTLET,Air,2
 Node,131,CORE SPC GC5 EXHAUST FAN OUTLET NODE,Air,0
 Node,132,CORE SPC TC15 EXHAUST FAN OUTLET NODE,Air,0
 Node,133,SOUTH PERIM PLNM GS6 ZONE AIR NODE,Air,0
 Node,134,SOUTH PERIM SPC GS1 RETURN OUTLET,Air,1
 Node,135,SOUTH PERIM PLNM TS16 ZONE AIR NODE,Air,0
 Node,136,SOUTH PERIM SPC TS11 RETURN OUTLET,Air,1
 Node,137,EAST PERIM PLNM GE7 ZONE AIR NODE,Air,0
 Node,138,EAST PERIM SPC GE2 RETURN OUTLET,Air,1
 Node,139,EAST PERIM PLNM TE17 ZONE AIR NODE,Air,0
 Node,140,EAST PERIM SPC TE12 RETURN OUTLET,Air,1
 Node,141,NORTH PERIM PLNM GN8 ZONE AIR NODE,Air,0
 Node,142,NORTH PERIM SPC GN3 RETURN OUTLET,Air,1
 Node,143,NORTH PERIM PLNM TN18 ZONE AIR NODE,Air,0
 Node,144,NORTH PERIM SPC TN13 RETURN OUTLET,Air,1
 Node,145,WEST PERIM PLNM GW9 ZONE AIR NODE,Air,0
 Node,146,WEST PERIM SPC GW4 RETURN OUTLET,Air,1
 Node,147,WEST PERIM PLNM TW19 ZONE AIR NODE,Air,0
 Node,148,WEST PERIM SPC TW14 RETURN OUTLET,Air,1
 Node,149,CORE PLNM GC10 ZONE AIR NODE,Air,0
 Node,150,CORE SPC GC5 RETURN OUTLET,Air,1
 Node,151,CORE PLNM TC20 ZONE AIR NODE,Air,0
 Node,152,CORE SPC TC15 RETURN OUTLET,Air,1
 Node,153,PSZ-1 SOUTH F2 RELIEF AIR OUTLET,Air,1
 Node,154,PSZ-2 EAST F2 RELIEF AIR OUTLET,Air,1
 Node,155,PSZ-3 NORTH F2 RELIEF AIR OUTLET,Air,1
 Node,156,PSZ-4 WEST F2 RELIEF AIR OUTLET,Air,1
 Node,157,PSZ-5 CORE F2 RELIEF AIR OUTLET,Air,1
 Node,158,PSZ-6 SOUTH F1 RELIEF AIR OUTLET,Air,1
 Node,159,PSZ-7 EAST F1 RELIEF AIR OUTLET,Air,1
 Node,160,PSZ-8 NORTH F1 RELIEF AIR OUTLET,Air,1
 Node,161,PSZ-9 WEST F1 RELIEF AIR OUTLET,Air,1
 Node,162,PSZ-10 CORE F1 RELIEF AIR OUTLET,Air,1
 Node,163,PSZ-1 SOUTH F2 HEATING COIL OUTLET,Air,1
 Node,164,PSZ-2 EAST F2 HEATING COIL OUTLET,Air,1
 Node,165,PSZ-3 NORTH F2 HEATING COIL OUTLET,Air,1
 Node,166,PSZ-4 WEST F2 HEATING COIL OUTLET,Air,1
 Node,167,PSZ-5 CORE F2 HEATING COIL OUTLET,Air,1
 Node,168,PSZ-6 SOUTH F1 HEATING COIL OUTLET,Air,1
 Node,169,PSZ-7 EAST F1 HEATING COIL OUTLET,Air,1
 Node,170,PSZ-8 NORTH F1 HEATING COIL OUTLET,Air,1
 Node,171,PSZ-9 WEST F1 HEATING COIL OUTLET,Air,1
 Node,172,PSZ-10 CORE F1 HEATING COIL OUTLET,Air,1
! ===============================================================
! Suspicious nodes have 0 references.  It is normal for some nodes, however.
! Listing nodes with 0 references (culled from previous list):
! <Suspicious Node>,<NodeNumber>,<Node Name>,<Node Fluid Type>,<# Times Node Referenced After Definition>
 Suspicious Node,131,CORE SPC GC5 EXHAUST FAN OUTLET NODE,Air,0
 Suspicious Node,132,CORE SPC TC15 EXHAUST FAN OUTLET NODE,Air,0
 Suspicious Node,133,SOUTH PERIM PLNM GS6 ZONE AIR NODE,Air,0
 Suspicious Node,135,SOUTH PERIM PLNM TS16 ZONE AIR NODE,Air,0
 Suspicious Node,137,EAST PERIM PLNM GE7 ZONE AIR NODE,Air,0
 Suspicious Node,139,EAST PERIM PLNM TE17 ZONE AIR NODE,Air,0
 Suspicious Node,141,NORTH PERIM PLNM GN8 ZONE AIR NODE,Air,0
 Suspicious Node,143,NORTH PERIM PLNM TN18 ZONE AIR NODE,Air,0
 Suspicious Node,145,WEST PERIM PLNM GW9 ZONE AIR NODE,Air,0
 Suspicious Node,147,WEST PERIM PLNM TW19 ZONE AIR NODE,Air,0
 Suspicious Node,149,CORE PLNM GC10 ZONE AIR NODE,Air,0
 Suspicious Node,151,CORE PLNM TC20 ZONE AIR NODE,Air,0
! ===============================================================
! <#Branch Lists>,<Number of Branch Lists>
 #Branch Lists,12
! <Branch List>,<Branch List Count>,<Branch List Name>,<Loop Name>,<Loop Type>,<Number of Branches>
! <Branch>,<Branch Count>,<Branch Name>,<Loop Name>,<Loop Type>,<Branch Inlet Node Name>,<Branch Outlet Node Name>
 Branch List,1,PSZ-1 SOUTH F2 BRANCHES,PSZ-1 SOUTH F2,Air,1
   Branch,1,PSZ-1 SOUTH F2 MAIN BRANCH,PSZ-1 SOUTH F2,Air,PSZ-1 SOUTH F2 AIR LOOP INLET,PSZ-1 SOUTH F2 AIR LOOP OUTLET
 Branch List,2,PSZ-2 EAST F2 BRANCHES,PSZ-2 EAST F2,Air,1
   Branch,1,PSZ-2 EAST F2 MAIN BRANCH,PSZ-2 EAST F2,Air,PSZ-2 EAST F2 AIR LOOP INLET,PSZ-2 EAST F2 AIR LOOP OUTLET
 Branch List,3,PSZ-3 NORTH F2 BRANCHES,PSZ-3 NORTH F2,Air,1
   Branch,1,PSZ-3 NORTH F2 MAIN BRANCH,PSZ-3 NORTH F2,Air,PSZ-3 NORTH F2 AIR LOOP INLET,PSZ-3 NORTH F2 AIR LOOP OUTLET
 Branch List,4,PSZ-4 WEST F2 BRANCHES,PSZ-4 WEST F2,Air,1
   Branch,1,PSZ-4 WEST F2 MAIN BRANCH,PSZ-4 WEST F2,Air,PSZ-4 WEST F2 AIR LOOP INLET,PSZ-4 WEST F2 AIR LOOP OUTLET
 Branch List,5,PSZ-5 CORE F2 BRANCHES,PSZ-5 CORE F2,Air,1
   Branch,1,PSZ-5 CORE F2 MAIN BRANCH,PSZ-5 CORE F2,Air,PSZ-5 CORE F2 AIR LOOP INLET,PSZ-5 CORE F2 AIR LOOP OUTLET
 Branch List,6,PSZ-6 SOUTH F1 BRANCHES,PSZ-6 SOUTH F1,Air,1
   Branch,1,PSZ-6 SOUTH F1 MAIN BRANCH,PSZ-6 SOUTH F1,Air,PSZ-6 SOUTH F1 AIR LOOP INLET,PSZ-6 SOUTH F1 AIR LOOP OUTLET
 Branch List,7,PSZ-7 EAST F1 BRANCHES,PSZ-7 EAST F1,Air,1
   Branch,1,PSZ-7 EAST F1 MAIN BRANCH,PSZ-7 EAST F1,Air,PSZ-7 EAST F1 AIR LOOP INLET,PSZ-7 EAST F1 AIR LOOP OUTLET
 Branch List,8,PSZ-8 NORTH F1 BRANCHES,PSZ-8 NORTH F1,Air,1
   Branch,1,PSZ-8 NORTH F1 MAIN BRANCH,PSZ-8 NORTH F1,Air,PSZ-8 NORTH F1 AIR LOOP INLET,PSZ-8 NORTH F1 AIR LOOP OUTLET
 Branch List,9,PSZ-9 WEST F1 BRANCHES,PSZ-9 WEST F1,Air,1
   Branch,1,PSZ-9 WEST F1 MAIN BRANCH,PSZ-9 WEST F1,Air,PSZ-9 WEST F1 AIR LOOP INLET,PSZ-9 WEST F1 AIR LOOP OUTLET
 Branch List,10,PSZ-10 CORE F1 BRANCHES,PSZ-10 CORE F1,Air,1
   Branch,1,PSZ-10 CORE F1 MAIN BRANCH,PSZ-10 CORE F1,Air,PSZ-10 CORE F1 AIR LOOP INLET,PSZ-10 CORE F1 AIR LOOP OUTLET
 Branch List,11,SWHSYS1 SUPPLY BRANCHES,SWHSYS1,Plant Supply,4
   Branch,1,SWHSYS1 SUPPLY INLET BRANCH,SWHSYS1,Plant Supply,SWHSYS1 SUPPLY INLET NODE,SWHSYS1 PUMP-SWHSYS1 WATER HEATERNODEVIACONNECTOR
   Branch,2,SWHSYS1 SUPPLY EQUIPMENT BRANCH,SWHSYS1,Plant Supply,SWHSYS1 PUMP-SWHSYS1 WATER HEATERNODE,SWHSYS1 SUPPLY EQUIPMENT OUTLET NODE
   Branch,3,SWHSYS1 SUPPLY EQUIPMENT BYPASS BRANCH,SWHSYS1,Plant Supply,SWHSYS1 SUPPLY EQUIP BYPASS INLET NODE,SWHSYS1 SUPPLY EQUIP BYPASS OUTLET NODE
   Branch,4,SWHSYS1 SUPPLY OUTLET BRANCH,SWHSYS1,Plant Supply,SWHSYS1 SUPPLY MIXER-SWHSYS1 SUPPLY OUTLET PIPE,SWHSYS1 SUPPLY OUTLET NODE
 Branch List,12,SWHSYS1 DEMAND BRANCHES,SWHSYS1,Plant Demand,5
   Branch,1,SWHSYS1 DEMAND INLET BRANCH,SWHSYS1,Plant Demand,SWHSYS1 DEMAND INLET NODE,SWHSYS1 DEMAND INLET PIPE-SWHSYS1 DEMAND MIXER
   Branch,2,SWHSYS1 DEMAND LOAD BRANCH 1,SWHSYS1,Plant Demand,CORE SPC GC5 WATER EQUIPMENT WATER INLET NODE,CORE SPC GC5 WATER EQUIPMENT WATER OUTLET NODE
   Branch,3,SWHSYS1 DEMAND LOAD BRANCH 2,SWHSYS1,Plant Demand,CORE SPC TC15 WATER EQUIPMENT WATER INLET NODE,CORE SPC TC15 WATER EQUIPMENT WATER OUTLET NODE
   Branch,4,SWHSYS1 DEMAND BYPASS BRANCH,SWHSYS1,Plant Demand,SWHSYS1 DEMAND BYPASS PIPE INLET NODE,SWHSYS1 DEMAND BYPASS PIPE OUTLET NODE
   Branch,5,SWHSYS1 DEMAND OUTLET BRANCH,SWHSYS1,Plant Demand,SWHSYS1 DEMAND MIXER-SWHSYS1 DEMAND OUTLET PIPE,SWHSYS1 DEMAND OUTLET NODE
! ===============================================================
! <#Supply Air Paths>,<Number of Supply Air Paths>
 #Supply Air Paths,10
! <Supply Air Path>,<Supply Air Path Count>,<Supply Air Path Name>,<AirLoopHVAC Name>
! <#Components on Supply Air Path>,<Number of Components>
! <Supply Air Path Component>,<Component Count>,<Component Type>,<Component Name>,<AirLoopHVAC Name>
! <#Outlet Nodes on Supply Air Path Component>,<Number of Nodes>
! <Supply Air Path Component Nodes>,<Node Count>,<Component Type>,<Component Name>,<Inlet Node Name>,<Outlet Node Name>,<AirLoopHVAC Name>
 Supply Air Path,1,PSZ-1 SOUTH F2 SUPPLY PATH,PSZ-1 SOUTH F2
   #Components on Supply Air Path,1
   Supply Air Path Component,1,AIRLOOPHVAC:ZONESPLITTER,PSZ-1 SOUTH F2 ZONE SPLITTER,PSZ-1 SOUTH F2
     #Outlet Nodes on Supply Air Path Component,1
     Supply Air Path Component Nodes,1,AIRLOOPHVAC:ZONESPLITTER,PSZ-1 SOUTH F2 ZONE SPLITTER,PSZ-1 SOUTH F2 SUPPLY PATH INLET,SOUTH PERIM SPC TS11 ZONE EQUIP INLET,PSZ-1 SOUTH F2
! <#Nodes on Supply Air Path>,<Number of Nodes>
! <Supply Air Path Node>,<Node Type>,<Node Count>,<Node Name>,<AirLoopHVAC Name>
#Nodes on Supply Air Path,2
   Supply Air Path Node,Inlet Node,1,PSZ-1 SOUTH F2 SUPPLY PATH INLET,PSZ-1 SOUTH F2
   Supply Air Path Node,Outlet Node,2,SOUTH PERIM SPC TS11 ZONE EQUIP INLET,PSZ-1 SOUTH F2
 Supply Air Path,2,PSZ-2 EAST F2 SUPPLY PATH,PSZ-2 EAST F2
   #Components on Supply Air Path,1
   Supply Air Path Component,1,AIRLOOPHVAC:ZONESPLITTER,PSZ-2 EAST F2 ZONE SPLITTER,PSZ-2 EAST F2
     #Outlet Nodes on Supply Air Path Component,1
     Supply Air Path Component Nodes,1,AIRLOOPHVAC:ZONESPLITTER,PSZ-2 EAST F2 ZONE SPLITTER,PSZ-2 EAST F2 SUPPLY PATH INLET,EAST PERIM SPC TE12 ZONE EQUIP INLET,PSZ-2 EAST F2
! <#Nodes on Supply Air Path>,<Number of Nodes>
! <Supply Air Path Node>,<Node Type>,<Node Count>,<Node Name>,<AirLoopHVAC Name>
#Nodes on Supply Air Path,2
   Supply Air Path Node,Inlet Node,1,PSZ-2 EAST F2 SUPPLY PATH INLET,PSZ-2 EAST F2
   Supply Air Path Node,Outlet Node,2,EAST PERIM SPC TE12 ZONE EQUIP INLET,PSZ-2 EAST F2
 Supply Air Path,3,PSZ-3 NORTH F2 SUPPLY PATH,PSZ-3 NORTH F2
   #Components on Supply Air Path,1
   Supply Air Path Component,1,AIRLOOPHVAC:ZONESPLITTER,PSZ-3 NORTH F2 ZONE SPLITTER,PSZ-3 NORTH F2
     #Outlet Nodes on Supply Air Path Component,1
     Supply Air Path Component Nodes,1,AIRLOOPHVAC:ZONESPLITTER,PSZ-3 NORTH F2 ZONE SPLITTER,PSZ-3 NORTH F2 SUPPLY PATH INLET,NORTH PERIM SPC TN13 ZONE EQUIP INLET,PSZ-3 NORTH F2
! <#Nodes on Supply Air Path>,<Number of Nodes>
! <Supply Air Path Node>,<Node Type>,<Node Count>,<Node Name>,<AirLoopHVAC Name>
#Nodes on Supply Air Path,2
   Supply Air Path Node,Inlet Node,1,PSZ-3 NORTH F2 SUPPLY PATH INLET,PSZ-3 NORTH F2
   Supply Air Path Node,Outlet Node,2,NORTH PERIM SPC TN13 ZONE EQUIP INLET,PSZ-3 NORTH F2
 Supply Air Path,4,PSZ-4 WEST F2 SUPPLY PATH,PSZ-4 WEST F2
   #Components on Supply Air Path,1
   Supply Air Path Component,1,AIRLOOPHVAC:ZONESPLITTER,PSZ-4 WEST F2 ZONE SPLITTER,PSZ-4 WEST F2
     #Outlet Nodes on Supply Air Path Component,1
     Supply Air Path Component Nodes,1,AIRLOOPHVAC:ZONESPLITTER,PSZ-4 WEST F2 ZONE SPLITTER,PSZ-4 WEST F2 SUPPLY PATH INLET,WEST PERIM SPC TW14 ZONE EQUIP INLET,PSZ-4 WEST F2
! <#Nodes on Supply Air Path>,<Number of Nodes>
! <Supply Air Path Node>,<Node Type>,<Node Count>,<Node Name>,<AirLoopHVAC Name>
#Nodes on Supply Air Path,2
   Supply Air Path Node,Inlet Node,1,PSZ-4 WEST F2 SUPPLY PATH INLET,PSZ-4 WEST F2
   Supply Air Path Node,Outlet Node,2,WEST PERIM SPC TW14 ZONE EQUIP INLET,PSZ-4 WEST F2
 Supply Air Path,5,PSZ-5 CORE F2 SUPPLY PATH,PSZ-5 CORE F2
   #Components on Supply Air Path,1
   Supply Air Path Component,1,AIRLOOPHVAC:ZONESPLITTER,PSZ-5 CORE F2 ZONE SPLITTER,PSZ-5 CORE F2
     #Outlet Nodes on Supply Air Path Component,1
     Supply Air Path Component Nodes,1,AIRLOOPHVAC:ZONESPLITTER,PSZ-5 CORE F2 ZONE SPLITTER,PSZ-5 CORE F2 SUPPLY PATH INLET,CORE SPC TC15 ZONE EQUIP INLET,PSZ-5 CORE F2
! <#Nodes on Supply Air Path>,<Number of Nodes>
! <Supply Air Path Node>,<Node Type>,<Node Count>,<Node Name>,<AirLoopHVAC Name>
#Nodes on Supply Air Path,2
   Supply Air Path Node,Inlet Node,1,PSZ-5 CORE F2 SUPPLY PATH INLET,PSZ-5 CORE F2
   Supply Air Path Node,Outlet Node,2,CORE SPC TC15 ZONE EQUIP INLET,PSZ-5 CORE F2
 Supply Air Path,6,PSZ-6 SOUTH F1 SUPPLY PATH,PSZ-6 SOUTH F1
   #Components on Supply Air Path,1
   Supply Air Path Component,1,AIRLOOPHVAC:ZONESPLITTER,PSZ-6 SOUTH F1 ZONE SPLITTER,PSZ-6 SOUTH F1
     #Outlet Nodes on Supply Air Path Component,1
     Supply Air Path Component Nodes,1,AIRLOOPHVAC:ZONESPLITTER,PSZ-6 SOUTH F1 ZONE SPLITTER,PSZ-6 SOUTH F1 SUPPLY PATH INLET,SOUTH PERIM SPC GS1 ZONE EQUIP INLET,PSZ-6 SOUTH F1
! <#Nodes on Supply Air Path>,<Number of Nodes>
! <Supply Air Path Node>,<Node Type>,<Node Count>,<Node Name>,<AirLoopHVAC Name>
#Nodes on Supply Air Path,2
   Supply Air Path Node,Inlet Node,1,PSZ-6 SOUTH F1 SUPPLY PATH INLET,PSZ-6 SOUTH F1
   Supply Air Path Node,Outlet Node,2,SOUTH PERIM SPC GS1 ZONE EQUIP INLET,PSZ-6 SOUTH F1
 Supply Air Path,7,PSZ-7 EAST F1 SUPPLY PATH,PSZ-7 EAST F1
   #Components on Supply Air Path,1
   Supply Air Path Component,1,AIRLOOPHVAC:ZONESPLITTER,PSZ-7 EAST F1 ZONE SPLITTER,PSZ-7 EAST F1
     #Outlet Nodes on Supply Air Path Component,1
     Supply Air Path Component Nodes,1,AIRLOOPHVAC:ZONESPLITTER,PSZ-7 EAST F1 ZONE SPLITTER,PSZ-7 EAST F1 SUPPLY PATH INLET,EAST PERIM SPC GE2 ZONE EQUIP INLET,PSZ-7 EAST F1
! <#Nodes on Supply Air Path>,<Number of Nodes>
! <Supply Air Path Node>,<Node Type>,<Node Count>,<Node Name>,<AirLoopHVAC Name>
#Nodes on Supply Air Path,2
   Supply Air Path Node,Inlet Node,1,PSZ-7 EAST F1 SUPPLY PATH INLET,PSZ-7 EAST F1
   Supply Air Path Node,Outlet Node,2,EAST PERIM SPC GE2 ZONE EQUIP INLET,PSZ-7 EAST F1
 Supply Air Path,8,PSZ-8 NORTH F1 SUPPLY PATH,PSZ-8 NORTH F1
   #Components on Supply Air Path,1
   Supply Air Path Component,1,AIRLOOPHVAC:ZONESPLITTER,PSZ-8 NORTH F1 ZONE SPLITTER,PSZ-8 NORTH F1
     #Outlet Nodes on Supply Air Path Component,1
     Supply Air Path Component Nodes,1,AIRLOOPHVAC:ZONESPLITTER,PSZ-8 NORTH F1 ZONE SPLITTER,PSZ-8 NORTH F1 SUPPLY PATH INLET,NORTH PERIM SPC GN3 ZONE EQUIP INLET,PSZ-8 NORTH F1
! <#Nodes on Supply Air Path>,<Number of Nodes>
! <Supply Air Path Node>,<Node Type>,<Node Count>,<Node Name>,<AirLoopHVAC Name>
#Nodes on Supply Air Path,2
   Supply Air Path Node,Inlet Node,1,PSZ-8 NORTH F1 SUPPLY PATH INLET,PSZ-8 NORTH F1
   Supply Air Path Node,Outlet Node,2,NORTH PERIM SPC GN3 ZONE EQUIP INLET,PSZ-8 NORTH F1
 Supply Air Path,9,PSZ-9 WEST F1 SUPPLY PATH,PSZ-9 WEST F1
   #Components on Supply Air Path,1
   Supply Air Path Component,1,AIRLOOPHVAC:ZONESPLITTER,PSZ-9 WEST F1 ZONE SPLITTER,PSZ-9 WEST F1
     #Outlet Nodes on Supply Air Path Component,1
     Supply Air Path Component Nodes,1,AIRLOOPHVAC:ZONESPLITTER,PSZ-9 WEST F1 ZONE SPLITTER,PSZ-9 WEST F1 SUPPLY PATH INLET,WEST PERIM SPC GW4 ZONE EQUIP INLET,PSZ-9 WEST F1
! <#Nodes on Supply Air Path>,<Number of Nodes>
! <Supply Air Path Node>,<Node Type>,<Node Count>,<Node Name>,<AirLoopHVAC Name>
#Nodes on Supply Air Path,2
   Supply Air Path Node,Inlet Node,1,PSZ-9 WEST F1 SUPPLY PATH INLET,PSZ-9 WEST F1
   Supply Air Path Node,Outlet Node,2,WEST PERIM SPC GW4 ZONE EQUIP INLET,PSZ-9 WEST F1
 Supply Air Path,10,PSZ-10 CORE F1 SUPPLY PATH,PSZ-10 CORE F1
   #Components on Supply Air Path,1
   Supply Air Path Component,1,AIRLOOPHVAC:ZONESPLITTER,PSZ-10 CORE F1 ZONE SPLITTER,PSZ-10 CORE F1
     #Outlet Nodes on Supply Air Path Component,1
     Supply Air Path Component Nodes,1,AIRLOOPHVAC:ZONESPLITTER,PSZ-10 CORE F1 ZONE SPLITTER,PSZ-10 CORE F1 SUPPLY PATH INLET,CORE SPC GC5 ZONE EQUIP INLET,PSZ-10 CORE F1
! <#Nodes on Supply Air Path>,<Number of Nodes>
! <Supply Air Path Node>,<Node Type>,<Node Count>,<Node Name>,<AirLoopHVAC Name>
#Nodes on Supply Air Path,2
   Supply Air Path Node,Inlet Node,1,PSZ-10 CORE F1 SUPPLY PATH INLET,PSZ-10 CORE F1
   Supply Air Path Node,Outlet Node,2,CORE SPC GC5 ZONE EQUIP INLET,PSZ-10 CORE F1
! ===============================================================
! <#Return Air Paths>,<Number of Return Air Paths>
 #Return Air Paths,10
! <Return Air Path>,<Return Air Path Count>,<Return Air Path Name>,<AirLoopHVAC Name>
! <#Components on Return Air Path>,<Number of Components>
! <Return Air Path Component>,<Component Count>,<Component Type>,<Component Name>,<AirLoopHVAC Name>
! <#Inlet Nodes on Return Air Path Component>,<Number of Nodes>
! <Return Air Path Component Nodes>,<Node Count>,<Component Type>,<Component Name>,<Inlet Node Name>,<Outlet Node Name>,<AirLoopHVAC Name>
 Return Air Path,1,PSZ-1 SOUTH F2 RETURN PATH,PSZ-1 SOUTH F2
   #Components on Return Air Path,2
   Return Air Path Component,1,AIRLOOPHVAC:RETURNPLENUM,SOUTH PERIM SPC TS11 ZONE RETURN PLENUM,PSZ-1 SOUTH F2
   Return Air Path Component,2,AIRLOOPHVAC:ZONEMIXER,PSZ-1 SOUTH F2 ZONE MIXER,PSZ-1 SOUTH F2
     #Inlet Nodes on Return Air Path Component,1
     Return Air Path Component Nodes,1,AIRLOOPHVAC:ZONEMIXER,PSZ-1 SOUTH F2 ZONE MIXER,SOUTH PERIM SPC TS11 RETURN OUTLET,PSZ-1 SOUTH F2 RETURN AIR OUTLET,PSZ-1 SOUTH F2
! <#Nodes on Return Air Path>,<Number of Nodes>
! <Return Air Path Node>,<Node Type>,<Node Count>,<Node Name>,<AirLoopHVAC Name>
   #Nodes on Return Air Path,3
   Return Air Path Node,Outlet Node,1,PSZ-1 SOUTH F2 RETURN AIR OUTLET,PSZ-1 SOUTH F2
   Return Air Path Node,Inlet Node,2,SOUTH PERIM SPC TS11 RETURN OUTLET,PSZ-1 SOUTH F2
   Return Air Path Node,Inlet Node,3,SOUTH PERIM SPC TS11 ZONE RETURN PLENUM INLET,PSZ-1 SOUTH F2
 Return Air Path,2,PSZ-2 EAST F2 RETURN PATH,PSZ-2 EAST F2
   #Components on Return Air Path,2
   Return Air Path Component,1,AIRLOOPHVAC:RETURNPLENUM,EAST PERIM SPC TE12 ZONE RETURN PLENUM,PSZ-2 EAST F2
   Return Air Path Component,2,AIRLOOPHVAC:ZONEMIXER,PSZ-2 EAST F2 ZONE MIXER,PSZ-2 EAST F2
     #Inlet Nodes on Return Air Path Component,1
     Return Air Path Component Nodes,1,AIRLOOPHVAC:ZONEMIXER,PSZ-2 EAST F2 ZONE MIXER,EAST PERIM SPC TE12 RETURN OUTLET,PSZ-2 EAST F2 RETURN AIR OUTLET,PSZ-2 EAST F2
! <#Nodes on Return Air Path>,<Number of Nodes>
! <Return Air Path Node>,<Node Type>,<Node Count>,<Node Name>,<AirLoopHVAC Name>
   #Nodes on Return Air Path,3
   Return Air Path Node,Outlet Node,1,PSZ-2 EAST F2 RETURN AIR OUTLET,PSZ-2 EAST F2
   Return Air Path Node,Inlet Node,2,EAST PERIM SPC TE12 RETURN OUTLET,PSZ-2 EAST F2
   Return Air Path Node,Inlet Node,3,EAST PERIM SPC TE12 ZONE RETURN PLENUM INLET,PSZ-2 EAST F2
 Return Air Path,3,PSZ-3 NORTH F2 RETURN PATH,PSZ-3 NORTH F2
   #Components on Return Air Path,2
   Return Air Path Component,1,AIRLOOPHVAC:RETURNPLENUM,NORTH PERIM SPC TN13 ZONE RETURN PLENUM,PSZ-3 NORTH F2
   Return Air Path Component,2,AIRLOOPHVAC:ZONEMIXER,PSZ-3 NORTH F2 ZONE MIXER,PSZ-3 NORTH F2
     #Inlet Nodes on Return Air Path Component,1
     Return Air Path Component Nodes,1,AIRLOOPHVAC:ZONEMIXER,PSZ-3 NORTH F2 ZONE MIXER,NORTH PERIM SPC TN13 RETURN OUTLET,PSZ-3 NORTH F2 RETURN AIR OUTLET,PSZ-3 NORTH F2
! <#Nodes on Return Air Path>,<Number of Nodes>
! <Return Air Path Node>,<Node Type>,<Node Count>,<Node Name>,<AirLoopHVAC Name>
   #Nodes on Return Air Path,3
   Return Air Path Node,Outlet Node,1,PSZ-3 NORTH F2 RETURN AIR OUTLET,PSZ-3 NORTH F2
   Return Air Path Node,Inlet Node,2,NORTH PERIM SPC TN13 RETURN OUTLET,PSZ-3 NORTH F2
   Return Air Path Node,Inlet Node,3,NORTH PERIM SPC TN13 ZONE RETURN PLENUM INLET,PSZ-3 NORTH F2
 Return Air Path,4,PSZ-4 WEST F2 RETURN PATH,PSZ-4 WEST F2
   #Components on Return Air Path,2
   Return Air Path Component,1,AIRLOOPHVAC:RETURNPLENUM,WEST PERIM SPC TW14 ZONE RETURN PLENUM,PSZ-4 WEST F2
   Return Air Path Component,2,AIRLOOPHVAC:ZONEMIXER,PSZ-4 WEST F2 ZONE MIXER,PSZ-4 WEST F2
     #Inlet Nodes on Return Air Path Component,1
     Return Air Path Component Nodes,1,AIRLOOPHVAC:ZONEMIXER,PSZ-4 WEST F2 ZONE MIXER,WEST PERIM SPC TW14 RETURN OUTLET,PSZ-4 WEST F2 RETURN AIR OUTLET,PSZ-4 WEST F2
! <#Nodes on Return Air Path>,<Number of Nodes>
! <Return Air Path Node>,<Node Type>,<Node Count>,<Node Name>,<AirLoopHVAC Name>
   #Nodes on Return Air Path,3
   Return Air Path Node,Outlet Node,1,PSZ-4 WEST F2 RETURN AIR OUTLET,PSZ-4 WEST F2
   Return Air Path Node,Inlet Node,2,WEST PERIM SPC TW14 RETURN OUTLET,PSZ-4 WEST F2
   Return Air Path Node,Inlet Node,3,WEST PERIM SPC TW14 ZONE RETURN PLENUM INLET,PSZ-4 WEST F2
 Return Air Path,5,PSZ-5 CORE F2 RETURN PATH,PSZ-5 CORE F2
   #Components on Return Air Path,2
   Return Air Path Component,1,AIRLOOPHVAC:RETURNPLENUM,CORE SPC TC15 ZONE RETURN PLENUM,PSZ-5 CORE F2
   Return Air Path Component,2,AIRLOOPHVAC:ZONEMIXER,PSZ-5 CORE F2 ZONE MIXER,PSZ-5 CORE F2
     #Inlet Nodes on Return Air Path Component,1
     Return Air Path Component Nodes,1,AIRLOOPHVAC:ZONEMIXER,PSZ-5 CORE F2 ZONE MIXER,CORE SPC TC15 RETURN OUTLET,PSZ-5 CORE F2 RETURN AIR OUTLET,PSZ-5 CORE F2
! <#Nodes on Return Air Path>,<Number of Nodes>
! <Return Air Path Node>,<Node Type>,<Node Count>,<Node Name>,<AirLoopHVAC Name>
   #Nodes on Return Air Path,3
   Return Air Path Node,Outlet Node,1,PSZ-5 CORE F2 RETURN AIR OUTLET,PSZ-5 CORE F2
   Return Air Path Node,Inlet Node,2,CORE SPC TC15 RETURN OUTLET,PSZ-5 CORE F2
   Return Air Path Node,Inlet Node,3,CORE SPC TC15 ZONE RETURN PLENUM INLET,PSZ-5 CORE F2
 Return Air Path,6,PSZ-6 SOUTH F1 RETURN PATH,PSZ-6 SOUTH F1
   #Components on Return Air Path,2
   Return Air Path Component,1,AIRLOOPHVAC:RETURNPLENUM,SOUTH PERIM SPC GS1 ZONE RETURN PLENUM,PSZ-6 SOUTH F1
   Return Air Path Component,2,AIRLOOPHVAC:ZONEMIXER,PSZ-6 SOUTH F1 ZONE MIXER,PSZ-6 SOUTH F1
     #Inlet Nodes on Return Air Path Component,1
     Return Air Path Component Nodes,1,AIRLOOPHVAC:ZONEMIXER,PSZ-6 SOUTH F1 ZONE MIXER,SOUTH PERIM SPC GS1 RETURN OUTLET,PSZ-6 SOUTH F1 RETURN AIR OUTLET,PSZ-6 SOUTH F1
! <#Nodes on Return Air Path>,<Number of Nodes>
! <Return Air Path Node>,<Node Type>,<Node Count>,<Node Name>,<AirLoopHVAC Name>
   #Nodes on Return Air Path,3
   Return Air Path Node,Outlet Node,1,PSZ-6 SOUTH F1 RETURN AIR OUTLET,PSZ-6 SOUTH F1
   Return Air Path Node,Inlet Node,2,SOUTH PERIM SPC GS1 RETURN OUTLET,PSZ-6 SOUTH F1
   Return Air Path Node,Inlet Node,3,SOUTH PERIM SPC GS1 ZONE RETURN PLENUM INLET,PSZ-6 SOUTH F1
 Return Air Path,7,PSZ-7 EAST F1 RETURN PATH,PSZ-7 EAST F1
   #Components on Return Air Path,2
   Return Air Path Component,1,AIRLOOPHVAC:RETURNPLENUM,EAST PERIM SPC GE2 ZONE RETURN PLENUM,PSZ-7 EAST F1
   Return Air Path Component,2,AIRLOOPHVAC:ZONEMIXER,PSZ-7 EAST F1 ZONE MIXER,PSZ-7 EAST F1
     #Inlet Nodes on Return Air Path Component,1
     Return Air Path Component Nodes,1,AIRLOOPHVAC:ZONEMIXER,PSZ-7 EAST F1 ZONE MIXER,EAST PERIM SPC GE2 RETURN OUTLET,PSZ-7 EAST F1 RETURN AIR OUTLET,PSZ-7 EAST F1
! <#Nodes on Return Air Path>,<Number of Nodes>
! <Return Air Path Node>,<Node Type>,<Node Count>,<Node Name>,<AirLoopHVAC Name>
   #Nodes on Return Air Path,3
   Return Air Path Node,Outlet Node,1,PSZ-7 EAST F1 RETURN AIR OUTLET,PSZ-7 EAST F1
   Return Air Path Node,Inlet Node,2,EAST PERIM SPC GE2 RETURN OUTLET,PSZ-7 EAST F1
   Return Air Path Node,Inlet Node,3,EAST PERIM SPC GE2 ZONE RETURN PLENUM INLET,PSZ-7 EAST F1
 Return Air Path,8,PSZ-8 NORTH F1 RETURN PATH,PSZ-8 NORTH F1
   #Components on Return Air Path,2
   Return Air Path Component,1,AIRLOOPHVAC:RETURNPLENUM,NORTH PERIM SPC GN3 ZONE RETURN PLENUM,PSZ-8 NORTH F1
   Return Air Path Component,2,AIRLOOPHVAC:ZONEMIXER,PSZ-8 NORTH F1 ZONE MIXER,PSZ-8 NORTH F1
     #Inlet Nodes on Return Air Path Component,1
     Return Air Path Component Nodes,1,AIRLOOPHVAC:ZONEMIXER,PSZ-8 NORTH F1 ZONE MIXER,NORTH PERIM SPC GN3 RETURN OUTLET,PSZ-8 NORTH F1 RETURN AIR OUTLET,PSZ-8 NORTH F1
! <#Nodes on Return Air Path>,<Number of Nodes>
! <Return Air Path Node>,<Node Type>,<Node Count>,<Node Name>,<AirLoopHVAC Name>
   #Nodes on Return Air Path,3
   Return Air Path Node,Outlet Node,1,PSZ-8 NORTH F1 RETURN AIR OUTLET,PSZ-8 NORTH F1
   Return Air Path Node,Inlet Node,2,NORTH PERIM SPC GN3 RETURN OUTLET,PSZ-8 NORTH F1
   Return Air Path Node,Inlet Node,3,NORTH PERIM SPC GN3 ZONE RETURN PLENUM INLET,PSZ-8 NORTH F1
 Return Air Path,9,PSZ-9 WEST F1 RETURN PATH,PSZ-9 WEST F1
   #Components on Return Air Path,2
   Return Air Path Component,1,AIRLOOPHVAC:RETURNPLENUM,WEST PERIM SPC GW4 ZONE RETURN PLENUM,PSZ-9 WEST F1
   Return Air Path Component,2,AIRLOOPHVAC:ZONEMIXER,PSZ-9 WEST F1 ZONE MIXER,PSZ-9 WEST F1
     #Inlet Nodes on Return Air Path Component,1
     Return Air Path Component Nodes,1,AIRLOOPHVAC:ZONEMIXER,PSZ-9 WEST F1 ZONE MIXER,WEST PERIM SPC GW4 RETURN OUTLET,PSZ-9 WEST F1 RETURN AIR OUTLET,PSZ-9 WEST F1
! <#Nodes on Return Air Path>,<Number of Nodes>
! <Return Air Path Node>,<Node Type>,<Node Count>,<Node Name>,<AirLoopHVAC Name>
   #Nodes on Return Air Path,3
   Return Air Path Node,Outlet Node,1,PSZ-9 WEST F1 RETURN AIR OUTLET,PSZ-9 WEST F1
   Return Air Path Node,Inlet Node,2,WEST PERIM SPC GW4 RETURN OUTLET,PSZ-9 WEST F1
   Return Air Path Node,Inlet Node,3,WEST PERIM SPC GW4 ZONE RETURN PLENUM INLET,PSZ-9 WEST F1
 Return Air Path,10,PSZ-10 CORE F1 RETURN PATH,PSZ-10 CORE F1
   #Components on Return Air Path,2
   Return Air Path Component,1,AIRLOOPHVAC:RETURNPLENUM,CORE SPC GC5 ZONE RETURN PLENUM,PSZ-10 CORE F1
   Return Air Path Component,2,AIRLOOPHVAC:ZONEMIXER,PSZ-10 CORE F1 ZONE MIXER,PSZ-10 CORE F1
     #Inlet Nodes on Return Air Path Component,1
     Return Air Path Component Nodes,1,AIRLOOPHVAC:ZONEMIXER,PSZ-10 CORE F1 ZONE MIXER,CORE SPC GC5 RETURN OUTLET,PSZ-10 CORE F1 RETURN AIR OUTLET,PSZ-10 CORE F1
! <#Nodes on Return Air Path>,<Number of Nodes>
! <Return Air Path Node>,<Node Type>,<Node Count>,<Node Name>,<AirLoopHVAC Name>
   #Nodes on Return Air Path,3
   Return Air Path Node,Outlet Node,1,PSZ-10 CORE F1 RETURN AIR OUTLET,PSZ-10 CORE F1
   Return Air Path Node,Inlet Node,2,CORE SPC GC5 RETURN OUTLET,PSZ-10 CORE F1
   Return Air Path Node,Inlet Node,3,CORE SPC GC5 ZONE RETURN PLENUM INLET,PSZ-10 CORE F1
! ===============================================================
! #Outdoor Air Nodes,<Number of Outdoor Air Nodes>
 #Outdoor Air Nodes,20
! <Outdoor Air Node>,<NodeNumber>,<Node Name>
 Outdoor Air Node,49,PSZ-1 SOUTH F2 OUTSIDE AIR INLET
 Outdoor Air Node,50,PSZ-2 EAST F2 OUTSIDE AIR INLET
 Outdoor Air Node,51,PSZ-3 NORTH F2 OUTSIDE AIR INLET
 Outdoor Air Node,52,PSZ-4 WEST F2 OUTSIDE AIR INLET
 Outdoor Air Node,53,PSZ-5 CORE F2 OUTSIDE AIR INLET
 Outdoor Air Node,54,PSZ-6 SOUTH F1 OUTSIDE AIR INLET
 Outdoor Air Node,55,PSZ-7 EAST F1 OUTSIDE AIR INLET
 Outdoor Air Node,56,PSZ-8 NORTH F1 OUTSIDE AIR INLET
 Outdoor Air Node,57,PSZ-9 WEST F1 OUTSIDE AIR INLET
 Outdoor Air Node,58,PSZ-10 CORE F1 OUTSIDE AIR INLET
 Outdoor Air Node,59,PSZ-1 SOUTH F2 COOLING COIL CONDENSER INLET
 Outdoor Air Node,60,PSZ-2 EAST F2 COOLING COIL CONDENSER INLET
 Outdoor Air Node,61,PSZ-3 NORTH F2 COOLING COIL CONDENSER INLET
 Outdoor Air Node,62,PSZ-4 WEST F2 COOLING COIL CONDENSER INLET
 Outdoor Air Node,63,PSZ-5 CORE F2 COOLING COIL CONDENSER INLET
 Outdoor Air Node,64,PSZ-6 SOUTH F1 COOLING COIL CONDENSER INLET
 Outdoor Air Node,65,PSZ-7 EAST F1 COOLING COIL CONDENSER INLET
 Outdoor Air Node,66,PSZ-8 NORTH F1 COOLING COIL CONDENSER INLET
 Outdoor Air Node,67,PSZ-9 WEST F1 COOLING COIL CONDENSER INLET
 Outdoor Air Node,68,PSZ-10 CORE F1 COOLING COIL CONDENSER INLET
! ===============================================================
! <#Component Sets>,<Number of Component Sets>
 #Component Sets,69
! <Component Set>,<Component Set Count>,<Parent Object Type>,<Parent Object Name>,<Component Type>,<Component Name>,<Inlet Node ID>,<Outlet Node ID>,<Description>
 Component Set,1,BRANCH,PSZ-1 SOUTH F2 MAIN BRANCH,AIRLOOPHVAC:OUTDOORAIRSYSTEM,PSZ-1 SOUTH F2 OA SYSTEM,PSZ-1 SOUTH F2 AIR LOOP INLET,PSZ-1 SOUTH F2 MIXED AIR OUTLET,Air Nodes
 Component Set,2,BRANCH,PSZ-1 SOUTH F2 MAIN BRANCH,AIRLOOPHVAC:UNITARY:FURNACE:HEATCOOL,PSZ-1 SOUTH F2 FURNACE WITH DX COOLING,PSZ-1 SOUTH F2 MIXED AIR OUTLET,PSZ-1 SOUTH F2 AIR LOOP OUTLET,Air Nodes
 Component Set,3,BRANCH,PSZ-2 EAST F2 MAIN BRANCH,AIRLOOPHVAC:OUTDOORAIRSYSTEM,PSZ-2 EAST F2 OA SYSTEM,PSZ-2 EAST F2 AIR LOOP INLET,PSZ-2 EAST F2 MIXED AIR OUTLET,Air Nodes
 Component Set,4,BRANCH,PSZ-2 EAST F2 MAIN BRANCH,AIRLOOPHVAC:UNITARY:FURNACE:HEATCOOL,PSZ-2 EAST F2 FURNACE WITH DX COOLING,PSZ-2 EAST F2 MIXED AIR OUTLET,PSZ-2 EAST F2 AIR LOOP OUTLET,Air Nodes
 Component Set,5,BRANCH,PSZ-3 NORTH F2 MAIN BRANCH,AIRLOOPHVAC:OUTDOORAIRSYSTEM,PSZ-3 NORTH F2 OA SYSTEM,PSZ-3 NORTH F2 AIR LOOP INLET,PSZ-3 NORTH F2 MIXED AIR OUTLET,Air Nodes
 Component Set,6,BRANCH,PSZ-3 NORTH F2 MAIN BRANCH,AIRLOOPHVAC:UNITARY:FURNACE:HEATCOOL,PSZ-3 NORTH F2 FURNACE WITH DX COOLING,PSZ-3 NORTH F2 MIXED AIR OUTLET,PSZ-3 NORTH F2 AIR LOOP OUTLET,Air Nodes
 Component Set,7,BRANCH,PSZ-4 WEST F2 MAIN BRANCH,AIRLOOPHVAC:OUTDOORAIRSYSTEM,PSZ-4 WEST F2 OA SYSTEM,PSZ-4 WEST F2 AIR LOOP INLET,PSZ-4 WEST F2 MIXED AIR OUTLET,Air Nodes
 Component Set,8,BRANCH,PSZ-4 WEST F2 MAIN BRANCH,AIRLOOPHVAC:UNITARY:FURNACE:HEATCOOL,PSZ-4 WEST F2 FURNACE WITH DX COOLING,PSZ-4 WEST F2 MIXED AIR OUTLET,PSZ-4 WEST F2 AIR LOOP OUTLET,Air Nodes
 Component Set,9,BRANCH,PSZ-5 CORE F2 MAIN BRANCH,AIRLOOPHVAC:OUTDOORAIRSYSTEM,PSZ-5 CORE F2 OA SYSTEM,PSZ-5 CORE F2 AIR LOOP INLET,PSZ-5 CORE F2 MIXED AIR OUTLET,Air Nodes
 Component Set,10,BRANCH,PSZ-5 CORE F2 MAIN BRANCH,AIRLOOPHVAC:UNITARY:FURNACE:HEATCOOL,PSZ-5 CORE F2 FURNACE WITH DX COOLING,PSZ-5 CORE F2 MIXED AIR OUTLET,PSZ-5 CORE F2 AIR LOOP OUTLET,Air Nodes
 Component Set,11,BRANCH,PSZ-6 SOUTH F1 MAIN BRANCH,AIRLOOPHVAC:OUTDOORAIRSYSTEM,PSZ-6 SOUTH F1 OA SYSTEM,PSZ-6 SOUTH F1 AIR LOOP INLET,PSZ-6 SOUTH F1 MIXED AIR OUTLET,Air Nodes
 Component Set,12,BRANCH,PSZ-6 SOUTH F1 MAIN BRANCH,AIRLOOPHVAC:UNITARY:FURNACE:HEATCOOL,PSZ-6 SOUTH F1 FURNACE WITH DX COOLING,PSZ-6 SOUTH F1 MIXED AIR OUTLET,PSZ-6 SOUTH F1 AIR LOOP OUTLET,Air Nodes
 Component Set,13,BRANCH,PSZ-7 EAST F1 MAIN BRANCH,AIRLOOPHVAC:OUTDOORAIRSYSTEM,PSZ-7 EAST F1 OA SYSTEM,PSZ-7 EAST F1 AIR LOOP INLET,PSZ-7 EAST F1 MIXED AIR OUTLET,Air Nodes
 Component Set,14,BRANCH,PSZ-7 EAST F1 MAIN BRANCH,AIRLOOPHVAC:UNITARY:FURNACE:HEATCOOL,PSZ-7 EAST F1 FURNACE WITH DX COOLING,PSZ-7 EAST F1 MIXED AIR OUTLET,PSZ-7 EAST F1 AIR LOOP OUTLET,Air Nodes
 Component Set,15,BRANCH,PSZ-8 NORTH F1 MAIN BRANCH,AIRLOOPHVAC:OUTDOORAIRSYSTEM,PSZ-8 NORTH F1 OA SYSTEM,PSZ-8 NORTH F1 AIR LOOP INLET,PSZ-8 NORTH F1 MIXED AIR OUTLET,Air Nodes
 Component Set,16,BRANCH,PSZ-8 NORTH F1 MAIN BRANCH,AIRLOOPHVAC:UNITARY:FURNACE:HEATCOOL,PSZ-8 NORTH F1 FURNACE WITH DX COOLING,PSZ-8 NORTH F1 MIXED AIR OUTLET,PSZ-8 NORTH F1 AIR LOOP OUTLET,Air Nodes
 Component Set,17,BRANCH,PSZ-9 WEST F1 MAIN BRANCH,AIRLOOPHVAC:OUTDOORAIRSYSTEM,PSZ-9 WEST F1 OA SYSTEM,PSZ-9 WEST F1 AIR LOOP INLET,PSZ-9 WEST F1 MIXED AIR OUTLET,Air Nodes
 Component Set,18,BRANCH,PSZ-9 WEST F1 MAIN BRANCH,AIRLOOPHVAC:UNITARY:FURNACE:HEATCOOL,PSZ-9 WEST F1 FURNACE WITH DX COOLING,PSZ-9 WEST F1 MIXED AIR OUTLET,PSZ-9 WEST F1 AIR LOOP OUTLET,Air Nodes
 Component Set,19,BRANCH,PSZ-10 CORE F1 MAIN BRANCH,AIRLOOPHVAC:OUTDOORAIRSYSTEM,PSZ-10 CORE F1 OA SYSTEM,PSZ-10 CORE F1 AIR LOOP INLET,PSZ-10 CORE F1 MIXED AIR OUTLET,Air Nodes
 Component Set,20,BRANCH,PSZ-10 CORE F1 MAIN BRANCH,AIRLOOPHVAC:UNITARY:FURNACE:HEATCOOL,PSZ-10 CORE F1 FURNACE WITH DX COOLING,PSZ-10 CORE F1 MIXED AIR OUTLET,PSZ-10 CORE F1 AIR LOOP OUTLET,Air Nodes
 Component Set,21,BRANCH,SWHSYS1 DEMAND LOAD BRANCH 1,WATERUSE:CONNECTIONS,CORE SPC GC5 WATER EQUIPMENT,CORE SPC GC5 WATER EQUIPMENT WATER INLET NODE,CORE SPC GC5 WATER EQUIPMENT WATER OUTLET NODE,DHW Nodes
 Component Set,22,BRANCH,SWHSYS1 DEMAND LOAD BRANCH 2,WATERUSE:CONNECTIONS,CORE SPC TC15 WATER EQUIPMENT,CORE SPC TC15 WATER EQUIPMENT WATER INLET NODE,CORE SPC TC15 WATER EQUIPMENT WATER OUTLET NODE,DHW Nodes
 Component Set,23,BRANCH,SWHSYS1 DEMAND INLET BRANCH,PIPE:ADIABATIC,SWHSYS1 DEMAND INLET PIPE,SWHSYS1 DEMAND INLET NODE,SWHSYS1 DEMAND INLET PIPE-SWHSYS1 DEMAND MIXER,Pipe Nodes
 Component Set,24,BRANCH,SWHSYS1 SUPPLY INLET BRANCH,PUMP:VARIABLESPEED,SWHSYS1 PUMP,SWHSYS1 SUPPLY INLET NODE,SWHSYS1 PUMP-SWHSYS1 WATER HEATERNODEVIACONNECTOR,Water Nodes
 Component Set,25,BRANCH,SWHSYS1 SUPPLY EQUIPMENT BRANCH,WATERHEATER:MIXED,SWHSYS1 WATER HEATER,SWHSYS1 PUMP-SWHSYS1 WATER HEATERNODE,SWHSYS1 SUPPLY EQUIPMENT OUTLET NODE,Use Side Water Nodes
 Component Set,26,BRANCH,SWHSYS1 SUPPLY EQUIPMENT BYPASS BRANCH,PIPE:ADIABATIC,SWHSYS1 SUPPLY EQUIPMENT BYPASS PIPE,SWHSYS1 SUPPLY EQUIP BYPASS INLET NODE,SWHSYS1 SUPPLY EQUIP BYPASS OUTLET NODE,Pipe Nodes
 Component Set,27,BRANCH,SWHSYS1 SUPPLY OUTLET BRANCH,PIPE:ADIABATIC,SWHSYS1 SUPPLY OUTLET PIPE,SWHSYS1 SUPPLY MIXER-SWHSYS1 SUPPLY OUTLET PIPE,SWHSYS1 SUPPLY OUTLET NODE,Pipe Nodes
 Component Set,28,BRANCH,SWHSYS1 DEMAND BYPASS BRANCH,PIPE:ADIABATIC,SWHSYS1 DEMAND BYPASS PIPE,SWHSYS1 DEMAND BYPASS PIPE INLET NODE,SWHSYS1 DEMAND BYPASS PIPE OUTLET NODE,Pipe Nodes
 Component Set,29,BRANCH,SWHSYS1 DEMAND OUTLET BRANCH,PIPE:ADIABATIC,SWHSYS1 DEMAND OUTLET PIPE,SWHSYS1 DEMAND MIXER-SWHSYS1 DEMAND OUTLET PIPE,SWHSYS1 DEMAND OUTLET NODE,Pipe Nodes
 Component Set,30,AIRLOOPHVAC:UNITARY:FURNACE:HEATCOOL,PSZ-1 SOUTH F2 FURNACE WITH DX COOLING,FAN:ONOFF,PSZ-1 SOUTH F2 SUPPLY FAN,PSZ-1 SOUTH F2 COOLING COIL OUTLET,PSZ-1 SOUTH F2 AIR LOOP OUTLET,Air Nodes
 Component Set,31,AIRLOOPHVAC:UNITARY:FURNACE:HEATCOOL,PSZ-2 EAST F2 FURNACE WITH DX COOLING,FAN:ONOFF,PSZ-2 EAST F2 SUPPLY FAN,PSZ-2 EAST F2 COOLING COIL OUTLET,PSZ-2 EAST F2 AIR LOOP OUTLET,Air Nodes
 Component Set,32,AIRLOOPHVAC:UNITARY:FURNACE:HEATCOOL,PSZ-3 NORTH F2 FURNACE WITH DX COOLING,FAN:ONOFF,PSZ-3 NORTH F2 SUPPLY FAN,PSZ-3 NORTH F2 COOLING COIL OUTLET,PSZ-3 NORTH F2 AIR LOOP OUTLET,Air Nodes
 Component Set,33,AIRLOOPHVAC:UNITARY:FURNACE:HEATCOOL,PSZ-4 WEST F2 FURNACE WITH DX COOLING,FAN:ONOFF,PSZ-4 WEST F2 SUPPLY FAN,PSZ-4 WEST F2 COOLING COIL OUTLET,PSZ-4 WEST F2 AIR LOOP OUTLET,Air Nodes
 Component Set,34,AIRLOOPHVAC:UNITARY:FURNACE:HEATCOOL,PSZ-5 CORE F2 FURNACE WITH DX COOLING,FAN:ONOFF,PSZ-5 CORE F2 SUPPLY FAN,PSZ-5 CORE F2 COOLING COIL OUTLET,PSZ-5 CORE F2 AIR LOOP OUTLET,Air Nodes
 Component Set,35,AIRLOOPHVAC:UNITARY:FURNACE:HEATCOOL,PSZ-6 SOUTH F1 FURNACE WITH DX COOLING,FAN:ONOFF,PSZ-6 SOUTH F1 SUPPLY FAN,PSZ-6 SOUTH F1 COOLING COIL OUTLET,PSZ-6 SOUTH F1 AIR LOOP OUTLET,Air Nodes
 Component Set,36,AIRLOOPHVAC:UNITARY:FURNACE:HEATCOOL,PSZ-7 EAST F1 FURNACE WITH DX COOLING,FAN:ONOFF,PSZ-7 EAST F1 SUPPLY FAN,PSZ-7 EAST F1 COOLING COIL OUTLET,PSZ-7 EAST F1 AIR LOOP OUTLET,Air Nodes
 Component Set,37,AIRLOOPHVAC:UNITARY:FURNACE:HEATCOOL,PSZ-8 NORTH F1 FURNACE WITH DX COOLING,FAN:ONOFF,PSZ-8 NORTH F1 SUPPLY FAN,PSZ-8 NORTH F1 COOLING COIL OUTLET,PSZ-8 NORTH F1 AIR LOOP OUTLET,Air Nodes
 Component Set,38,AIRLOOPHVAC:UNITARY:FURNACE:HEATCOOL,PSZ-9 WEST F1 FURNACE WITH DX COOLING,FAN:ONOFF,PSZ-9 WEST F1 SUPPLY FAN,PSZ-9 WEST F1 COOLING COIL OUTLET,PSZ-9 WEST F1 AIR LOOP OUTLET,Air Nodes
 Component Set,39,AIRLOOPHVAC:UNITARY:FURNACE:HEATCOOL,PSZ-10 CORE F1 FURNACE WITH DX COOLING,FAN:ONOFF,PSZ-10 CORE F1 SUPPLY FAN,PSZ-10 CORE F1 COOLING COIL OUTLET,PSZ-10 CORE F1 AIR LOOP OUTLET,Air Nodes
 Component Set,40,AIRLOOPHVAC:OUTDOORAIRSYSTEM,PSZ-1 SOUTH F2 OA SYSTEM,OUTDOORAIR:MIXER,PSZ-1 SOUTH F2 OA MIXING BOX,PSZ-1 SOUTH F2 OUTSIDE AIR INLET,PSZ-1 SOUTH F2 MIXED AIR OUTLET,Air Nodes
 Component Set,41,AIRLOOPHVAC:OUTDOORAIRSYSTEM,PSZ-2 EAST F2 OA SYSTEM,OUTDOORAIR:MIXER,PSZ-2 EAST F2 OA MIXING BOX,PSZ-2 EAST F2 OUTSIDE AIR INLET,PSZ-2 EAST F2 MIXED AIR OUTLET,Air Nodes
 Component Set,42,AIRLOOPHVAC:OUTDOORAIRSYSTEM,PSZ-3 NORTH F2 OA SYSTEM,OUTDOORAIR:MIXER,PSZ-3 NORTH F2 OA MIXING BOX,PSZ-3 NORTH F2 OUTSIDE AIR INLET,PSZ-3 NORTH F2 MIXED AIR OUTLET,Air Nodes
 Component Set,43,AIRLOOPHVAC:OUTDOORAIRSYSTEM,PSZ-4 WEST F2 OA SYSTEM,OUTDOORAIR:MIXER,PSZ-4 WEST F2 OA MIXING BOX,PSZ-4 WEST F2 OUTSIDE AIR INLET,PSZ-4 WEST F2 MIXED AIR OUTLET,Air Nodes
 Component Set,44,AIRLOOPHVAC:OUTDOORAIRSYSTEM,PSZ-5 CORE F2 OA SYSTEM,OUTDOORAIR:MIXER,PSZ-5 CORE F2 OA MIXING BOX,PSZ-5 CORE F2 OUTSIDE AIR INLET,PSZ-5 CORE F2 MIXED AIR OUTLET,Air Nodes
 Component Set,45,AIRLOOPHVAC:OUTDOORAIRSYSTEM,PSZ-6 SOUTH F1 OA SYSTEM,OUTDOORAIR:MIXER,PSZ-6 SOUTH F1 OA MIXING BOX,PSZ-6 SOUTH F1 OUTSIDE AIR INLET,PSZ-6 SOUTH F1 MIXED AIR OUTLET,Air Nodes
 Component Set,46,AIRLOOPHVAC:OUTDOORAIRSYSTEM,PSZ-7 EAST F1 OA SYSTEM,OUTDOORAIR:MIXER,PSZ-7 EAST F1 OA MIXING BOX,PSZ-7 EAST F1 OUTSIDE AIR INLET,PSZ-7 EAST F1 MIXED AIR OUTLET,Air Nodes
 Component Set,47,AIRLOOPHVAC:OUTDOORAIRSYSTEM,PSZ-8 NORTH F1 OA SYSTEM,OUTDOORAIR:MIXER,PSZ-8 NORTH F1 OA MIXING BOX,PSZ-8 NORTH F1 OUTSIDE AIR INLET,PSZ-8 NORTH F1 MIXED AIR OUTLET,Air Nodes
 Component Set,48,AIRLOOPHVAC:OUTDOORAIRSYSTEM,PSZ-9 WEST F1 OA SYSTEM,OUTDOORAIR:MIXER,PSZ-9 WEST F1 OA MIXING BOX,PSZ-9 WEST F1 OUTSIDE AIR INLET,PSZ-9 WEST F1 MIXED AIR OUTLET,Air Nodes
 Component Set,49,AIRLOOPHVAC:OUTDOORAIRSYSTEM,PSZ-10 CORE F1 OA SYSTEM,OUTDOORAIR:MIXER,PSZ-10 CORE F1 OA MIXING BOX,PSZ-10 CORE F1 OUTSIDE AIR INLET,PSZ-10 CORE F1 MIXED AIR OUTLET,Air Nodes
 Component Set,50,AIRLOOPHVAC:UNITARY:FURNACE:HEATCOOL,PSZ-1 SOUTH F2 FURNACE WITH DX COOLING,COIL:HEATING:GAS,PSZ-1 SOUTH F2 HEATING COIL,PSZ-1 SOUTH F2 MIXED AIR OUTLET,PSZ-1 SOUTH F2 HEATING COIL OUTLET,Air Nodes
 Component Set,51,AIRLOOPHVAC:UNITARY:FURNACE:HEATCOOL,PSZ-2 EAST F2 FURNACE WITH DX COOLING,COIL:HEATING:GAS,PSZ-2 EAST F2 HEATING COIL,PSZ-2 EAST F2 MIXED AIR OUTLET,PSZ-2 EAST F2 HEATING COIL OUTLET,Air Nodes
 Component Set,52,AIRLOOPHVAC:UNITARY:FURNACE:HEATCOOL,PSZ-3 NORTH F2 FURNACE WITH DX COOLING,COIL:HEATING:GAS,PSZ-3 NORTH F2 HEATING COIL,PSZ-3 NORTH F2 MIXED AIR OUTLET,PSZ-3 NORTH F2 HEATING COIL OUTLET,Air Nodes
 Component Set,53,AIRLOOPHVAC:UNITARY:FURNACE:HEATCOOL,PSZ-4 WEST F2 FURNACE WITH DX COOLING,COIL:HEATING:GAS,PSZ-4 WEST F2 HEATING COIL,PSZ-4 WEST F2 MIXED AIR OUTLET,PSZ-4 WEST F2 HEATING COIL OUTLET,Air Nodes
 Component Set,54,AIRLOOPHVAC:UNITARY:FURNACE:HEATCOOL,PSZ-5 CORE F2 FURNACE WITH DX COOLING,COIL:HEATING:GAS,PSZ-5 CORE F2 HEATING COIL,PSZ-5 CORE F2 MIXED AIR OUTLET,PSZ-5 CORE F2 HEATING COIL OUTLET,Air Nodes
 Component Set,55,AIRLOOPHVAC:UNITARY:FURNACE:HEATCOOL,PSZ-6 SOUTH F1 FURNACE WITH DX COOLING,COIL:HEATING:GAS,PSZ-6 SOUTH F1 HEATING COIL,PSZ-6 SOUTH F1 MIXED AIR OUTLET,PSZ-6 SOUTH F1 HEATING COIL OUTLET,Air Nodes
 Component Set,56,AIRLOOPHVAC:UNITARY:FURNACE:HEATCOOL,PSZ-7 EAST F1 FURNACE WITH DX COOLING,COIL:HEATING:GAS,PSZ-7 EAST F1 HEATING COIL,PSZ-7 EAST F1 MIXED AIR OUTLET,PSZ-7 EAST F1 HEATING COIL OUTLET,Air Nodes
 Component Set,57,AIRLOOPHVAC:UNITARY:FURNACE:HEATCOOL,PSZ-8 NORTH F1 FURNACE WITH DX COOLING,COIL:HEATING:GAS,PSZ-8 NORTH F1 HEATING COIL,PSZ-8 NORTH F1 MIXED AIR OUTLET,PSZ-8 NORTH F1 HEATING COIL OUTLET,Air Nodes
 Component Set,58,AIRLOOPHVAC:UNITARY:FURNACE:HEATCOOL,PSZ-9 WEST F1 FURNACE WITH DX COOLING,COIL:HEATING:GAS,PSZ-9 WEST F1 HEATING COIL,PSZ-9 WEST F1 MIXED AIR OUTLET,PSZ-9 WEST F1 HEATING COIL OUTLET,Air Nodes
 Component Set,59,AIRLOOPHVAC:UNITARY:FURNACE:HEATCOOL,PSZ-10 CORE F1 FURNACE WITH DX COOLING,COIL:HEATING:GAS,PSZ-10 CORE F1 HEATING COIL,PSZ-10 CORE F1 MIXED AIR OUTLET,PSZ-10 CORE F1 HEATING COIL OUTLET,Air Nodes
 Component Set,60,AIRLOOPHVAC:UNITARY:FURNACE:HEATCOOL,PSZ-1 SOUTH F2 FURNACE WITH DX COOLING,COIL:COOLING:DX:SINGLESPEED,PSZ-1 SOUTH F2 COOLING COIL,PSZ-1 SOUTH F2 HEATING COIL OUTLET,PSZ-1 SOUTH F2 COOLING COIL OUTLET,Air Nodes
 Component Set,61,AIRLOOPHVAC:UNITARY:FURNACE:HEATCOOL,PSZ-2 EAST F2 FURNACE WITH DX COOLING,COIL:COOLING:DX:SINGLESPEED,PSZ-2 EAST F2 COOLING COIL,PSZ-2 EAST F2 HEATING COIL OUTLET,PSZ-2 EAST F2 COOLING COIL OUTLET,Air Nodes
 Component Set,62,AIRLOOPHVAC:UNITARY:FURNACE:HEATCOOL,PSZ-3 NORTH F2 FURNACE WITH DX COOLING,COIL:COOLING:DX:SINGLESPEED,PSZ-3 NORTH F2 COOLING COIL,PSZ-3 NORTH F2 HEATING COIL OUTLET,PSZ-3 NORTH F2 COOLING COIL OUTLET,Air Nodes
 Component Set,63,AIRLOOPHVAC:UNITARY:FURNACE:HEATCOOL,PSZ-4 WEST F2 FURNACE WITH DX COOLING,COIL:COOLING:DX:SINGLESPEED,PSZ-4 WEST F2 COOLING COIL,PSZ-4 WEST F2 HEATING COIL OUTLET,PSZ-4 WEST F2 COOLING COIL OUTLET,Air Nodes
 Component Set,64,AIRLOOPHVAC:UNITARY:FURNACE:HEATCOOL,PSZ-5 CORE F2 FURNACE WITH DX COOLING,COIL:COOLING:DX:SINGLESPEED,PSZ-5 CORE F2 COOLING COIL,PSZ-5 CORE F2 HEATING COIL OUTLET,PSZ-5 CORE F2 COOLING COIL OUTLET,Air Nodes
 Component Set,65,AIRLOOPHVAC:UNITARY:FURNACE:HEATCOOL,PSZ-6 SOUTH F1 FURNACE WITH DX COOLING,COIL:COOLING:DX:SINGLESPEED,PSZ-6 SOUTH F1 COOLING COIL,PSZ-6 SOUTH F1 HEATING COIL OUTLET,PSZ-6 SOUTH F1 COOLING COIL OUTLET,Air Nodes
 Component Set,66,AIRLOOPHVAC:UNITARY:FURNACE:HEATCOOL,PSZ-7 EAST F1 FURNACE WITH DX COOLING,COIL:COOLING:DX:SINGLESPEED,PSZ-7 EAST F1 COOLING COIL,PSZ-7 EAST F1 HEATING COIL OUTLET,PSZ-7 EAST F1 COOLING COIL OUTLET,Air Nodes
 Component Set,67,AIRLOOPHVAC:UNITARY:FURNACE:HEATCOOL,PSZ-8 NORTH F1 FURNACE WITH DX COOLING,COIL:COOLING:DX:SINGLESPEED,PSZ-8 NORTH F1 COOLING COIL,PSZ-8 NORTH F1 HEATING COIL OUTLET,PSZ-8 NORTH F1 COOLING COIL OUTLET,Air Nodes
 Component Set,68,AIRLOOPHVAC:UNITARY:FURNACE:HEATCOOL,PSZ-9 WEST F1 FURNACE WITH DX COOLING,COIL:COOLING:DX:SINGLESPEED,PSZ-9 WEST F1 COOLING COIL,PSZ-9 WEST F1 HEATING COIL OUTLET,PSZ-9 WEST F1 COOLING COIL OUTLET,Air Nodes
 Component Set,69,AIRLOOPHVAC:UNITARY:FURNACE:HEATCOOL,PSZ-10 CORE F1 FURNACE WITH DX COOLING,COIL:COOLING:DX:SINGLESPEED,PSZ-10 CORE F1 COOLING COIL,PSZ-10 CORE F1 HEATING COIL OUTLET,PSZ-10 CORE F1 COOLING COIL OUTLET,Air Nodes
! ===============================================================
! <# Plant Loops>,<Number of Plant Loops>
 #Plant Loops,1
! <Plant Loop>,<Plant Loop Name>,<Loop Type>,<Inlet Node Name>,<Outlet Node Name>,<Branch List>,<Connector List>
! <Plant Loop Connector>,<Connector Type>,<Connector Name>,<Loop Name>,<Loop Type>,<Number of Inlets/Outlets>
! <Plant Loop Connector Branches>,<Connector Node Count>,<Connector Type>,<Connector Name>,<Inlet Branch>,<Outlet Branch>,<Loop Name>,<Loop Type>
! <Plant Loop Connector Nodes>,<Connector Node Count>,<Connector Type>,<Connector Name>,<Inlet Node>,<Outlet Node>,<Loop Name>,<Loop Type>
! <Plant Loop Supply Connection>,<Plant Loop Name>,<Supply Side Outlet Node Name>,<Demand Side Inlet Node Name>
! <Plant Loop Return Connection>,<Plant Loop Name>,<Demand Side Outlet Node Name>,<Supply Side Inlet Node Name>
 Plant Loop,SWHSYS1,Demand,SWHSYS1 DEMAND INLET NODE,SWHSYS1 DEMAND OUTLET NODE,SWHSYS1 DEMAND BRANCHES,SWHSYS1 DEMAND CONNECTORS
   Plant Loop Connector,Splitter,SWHSYS1 DEMAND SPLITTER,SWHSYS1,Demand,3
     Plant Loop Connector Branches,1,Splitter,SWHSYS1 DEMAND SPLITTER,SWHSYS1 DEMAND INLET BRANCH,SWHSYS1 DEMAND LOAD BRANCH 1,SWHSYS1,Demand
     Plant Loop Connector Nodes,   1,Splitter,SWHSYS1 DEMAND SPLITTER,SWHSYS1 DEMAND INLET PIPE-SWHSYS1 DEMAND MIXER,CORE SPC GC5 WATER EQUIPMENT WATER INLET NODE,SWHSYS1,Demand
     Plant Loop Connector Branches,2,Splitter,SWHSYS1 DEMAND SPLITTER,SWHSYS1 DEMAND INLET BRANCH,SWHSYS1 DEMAND LOAD BRANCH 2,SWHSYS1,Demand
     Plant Loop Connector Nodes,   2,Splitter,SWHSYS1 DEMAND SPLITTER,SWHSYS1 DEMAND INLET PIPE-SWHSYS1 DEMAND MIXER,CORE SPC TC15 WATER EQUIPMENT WATER INLET NODE,SWHSYS1,Demand
     Plant Loop Connector Branches,3,Splitter,SWHSYS1 DEMAND SPLITTER,SWHSYS1 DEMAND INLET BRANCH,SWHSYS1 DEMAND BYPASS BRANCH,SWHSYS1,Demand
     Plant Loop Connector Nodes,   3,Splitter,SWHSYS1 DEMAND SPLITTER,SWHSYS1 DEMAND INLET PIPE-SWHSYS1 DEMAND MIXER,SWHSYS1 DEMAND BYPASS PIPE INLET NODE,SWHSYS1,Demand
   Plant Loop Connector,Mixer,SWHSYS1 DEMAND MIXER,SWHSYS1,Demand,3
     Plant Loop Connector Branches,1,Mixer,SWHSYS1 DEMAND MIXER,SWHSYS1 DEMAND LOAD BRANCH 1,SWHSYS1 DEMAND OUTLET BRANCH,SWHSYS1,Demand
     Plant Loop Connector Nodes,   1,Mixer,SWHSYS1 DEMAND MIXER,CORE SPC GC5 WATER EQUIPMENT WATER OUTLET NODE,SWHSYS1 DEMAND MIXER-SWHSYS1 DEMAND OUTLET PIPE,SWHSYS1,Demand
     Plant Loop Connector Branches,2,Mixer,SWHSYS1 DEMAND MIXER,SWHSYS1 DEMAND LOAD BRANCH 2,SWHSYS1 DEMAND OUTLET BRANCH,SWHSYS1,Demand
     Plant Loop Connector Nodes,   2,Mixer,SWHSYS1 DEMAND MIXER,CORE SPC TC15 WATER EQUIPMENT WATER OUTLET NODE,SWHSYS1 DEMAND MIXER-SWHSYS1 DEMAND OUTLET PIPE,SWHSYS1,Demand
     Plant Loop Connector Branches,3,Mixer,SWHSYS1 DEMAND MIXER,SWHSYS1 DEMAND BYPASS BRANCH,SWHSYS1 DEMAND OUTLET BRANCH,SWHSYS1,Demand
     Plant Loop Connector Nodes,   3,Mixer,SWHSYS1 DEMAND MIXER,SWHSYS1 DEMAND BYPASS PIPE OUTLET NODE,SWHSYS1 DEMAND MIXER-SWHSYS1 DEMAND OUTLET PIPE,SWHSYS1,Demand
 Plant Loop,SWHSYS1,Supply,SWHSYS1 SUPPLY INLET NODE,SWHSYS1 SUPPLY OUTLET NODE,SWHSYS1 SUPPLY BRANCHES,SWHSYS1 SUPPLY CONNECTORS
   Plant Loop Connector,Splitter,SWHSYS1 SUPPLY SPLITTER,SWHSYS1,Supply,2
     Plant Loop Connector Branches,1,Splitter,SWHSYS1 SUPPLY SPLITTER,SWHSYS1 SUPPLY INLET BRANCH,SWHSYS1 SUPPLY EQUIPMENT BRANCH,SWHSYS1,Supply
     Plant Loop Connector Nodes,   1,Splitter,SWHSYS1 SUPPLY SPLITTER,SWHSYS1 PUMP-SWHSYS1 WATER HEATERNODEVIACONNECTOR,SWHSYS1 PUMP-SWHSYS1 WATER HEATERNODE,SWHSYS1,Supply
     Plant Loop Connector Branches,2,Splitter,SWHSYS1 SUPPLY SPLITTER,SWHSYS1 SUPPLY INLET BRANCH,SWHSYS1 SUPPLY EQUIPMENT BYPASS BRANCH,SWHSYS1,Supply
     Plant Loop Connector Nodes,   2,Splitter,SWHSYS1 SUPPLY SPLITTER,SWHSYS1 PUMP-SWHSYS1 WATER HEATERNODEVIACONNECTOR,SWHSYS1 SUPPLY EQUIP BYPASS INLET NODE,SWHSYS1,Supply
   Plant Loop Connector,Mixer,SWHSYS1 SUPPLY MIXER,SWHSYS1,Supply,2
     Plant Loop Connector Branches,1,Mixer,SWHSYS1 SUPPLY MIXER,SWHSYS1 SUPPLY EQUIPMENT BRANCH,SWHSYS1 SUPPLY OUTLET BRANCH,SWHSYS1,Supply
     Plant Loop Connector Nodes,   1,Mixer,SWHSYS1 SUPPLY MIXER,SWHSYS1 SUPPLY EQUIPMENT OUTLET NODE,SWHSYS1 SUPPLY MIXER-SWHSYS1 SUPPLY OUTLET PIPE,SWHSYS1,Supply
     Plant Loop Connector Branches,2,Mixer,SWHSYS1 SUPPLY MIXER,SWHSYS1 SUPPLY EQUIPMENT BYPASS BRANCH,SWHSYS1 SUPPLY OUTLET BRANCH,SWHSYS1,Supply
     Plant Loop Connector Nodes,   2,Mixer,SWHSYS1 SUPPLY MIXER,SWHSYS1 SUPPLY EQUIP BYPASS OUTLET NODE,SWHSYS1 SUPPLY MIXER-SWHSYS1 SUPPLY OUTLET PIPE,SWHSYS1,Supply
 Plant Loop Supply Connection,SWHSYS1,SWHSYS1 SUPPLY OUTLET NODE,SWHSYS1 DEMAND INLET NODE
 Plant Loop Return Connection,SWHSYS1,SWHSYS1 DEMAND OUTLET NODE,SWHSYS1 SUPPLY INLET NODE
! ===============================================================
! <# Condenser Loops>,<Number of Condenser Loops>
 #Condenser Loops,0
! <Condenser Loop>,<Condenser Loop Name>,<Loop Type>,<Inlet Node Name>,<Outlet Node Name>,<Branch List>,<Connector List>
! <Condenser Loop Connector>,<Connector Type>,<Connector Name>,<Loop Name>,<Loop Type>,<Number of Inlets/Outlets>
! <Condenser Loop Connector Branches>,<Connector Node Count>,<Connector Type>,<Connector Name>,<Inlet Branch>,<Outlet Branch>,<Loop Name>,<Loop Type>
! <Condenser Loop Connector Nodes>,<Connector Node Count>,<Connector Type>,<Connector Name>,<Inlet Node>,<Outlet Node>,<Loop Name>,<Loop Type>
! <Condenser Loop Supply Connection>,<Condenser Loop Name>,<Supply Side Outlet Node Name>,<Demand Side Inlet Node Name>
! <Condenser Loop Return Connection>,<Condenser Loop Name>,<Demand Side Outlet Node Name>,<Supply Side Inlet Node Name>
! ===============================================================
! <# Controlled Zones>,<Number of Controlled Zones>
 #Controlled Zones,10
! <Controlled Zone>,<Controlled Zone Name>,<Equip List Name>,<Control List Name>,<Zone Node Name>,<Return Air Node Name>,<# Inlet Nodes>,<# Exhaust Nodes>
! <Controlled Zone Inlet>,<Inlet Node Count>,<Controlled Zone Name>,<Supply Air Inlet Node Name>,<SD Sys:Cooling/Heating [DD:Cooling] Inlet Node Name>,<DD Sys:Heating Inlet Node Name>
! <Controlled Zone Exhaust>,<Exhaust Node Count>,<Controlled Zone Name>,<Exhaust Air Node Name>
 Controlled Zone,SOUTH PERIM SPC GS1,SOUTH PERIM SPC GS1 EQUIPMENT,,SOUTH PERIM SPC GS1 ZONE AIR NODE,SOUTH PERIM SPC GS1 ZONE RETURN PLENUM INLET,1,0
   Controlled Zone Inlet,1,SOUTH PERIM SPC GS1,SOUTH PERIM SPC GS1 ZONE EQUIP INLET,SOUTH PERIM SPC GS1 ZONE EQUIP INLET,N/A
 Controlled Zone,EAST PERIM SPC GE2,EAST PERIM SPC GE2 EQUIPMENT,,EAST PERIM SPC GE2 ZONE AIR NODE,EAST PERIM SPC GE2 ZONE RETURN PLENUM INLET,1,0
   Controlled Zone Inlet,1,EAST PERIM SPC GE2,EAST PERIM SPC GE2 ZONE EQUIP INLET,EAST PERIM SPC GE2 ZONE EQUIP INLET,N/A
 Controlled Zone,NORTH PERIM SPC GN3,NORTH PERIM SPC GN3 EQUIPMENT,,NORTH PERIM SPC GN3 ZONE AIR NODE,NORTH PERIM SPC GN3 ZONE RETURN PLENUM INLET,1,0
   Controlled Zone Inlet,1,NORTH PERIM SPC GN3,NORTH PERIM SPC GN3 ZONE EQUIP INLET,NORTH PERIM SPC GN3 ZONE EQUIP INLET,N/A
 Controlled Zone,WEST PERIM SPC GW4,WEST PERIM SPC GW4 EQUIPMENT,,WEST PERIM SPC GW4 ZONE AIR NODE,WEST PERIM SPC GW4 ZONE RETURN PLENUM INLET,1,0
   Controlled Zone Inlet,1,WEST PERIM SPC GW4,WEST PERIM SPC GW4 ZONE EQUIP INLET,WEST PERIM SPC GW4 ZONE EQUIP INLET,N/A
 Controlled Zone,CORE SPC GC5,CORE SPC GC5 EQUIPMENT,,CORE SPC GC5 ZONE AIR NODE,CORE SPC GC5 ZONE RETURN PLENUM INLET,1,1
   Controlled Zone Inlet,1,CORE SPC GC5,CORE SPC GC5 ZONE EQUIP INLET,CORE SPC GC5 ZONE EQUIP INLET,N/A
   Controlled Zone Exhaust,1,CORE SPC GC5,CORE SPC GC5 EXHAUST FAN NODE
 Controlled Zone,SOUTH PERIM SPC TS11,SOUTH PERIM SPC TS11 EQUIPMENT,,SOUTH PERIM SPC TS11 ZONE AIR NODE,SOUTH PERIM SPC TS11 ZONE RETURN PLENUM INLET,1,0
   Controlled Zone Inlet,1,SOUTH PERIM SPC TS11,SOUTH PERIM SPC TS11 ZONE EQUIP INLET,SOUTH PERIM SPC TS11 ZONE EQUIP INLET,N/A
 Controlled Zone,EAST PERIM SPC TE12,EAST PERIM SPC TE12 EQUIPMENT,,EAST PERIM SPC TE12 ZONE AIR NODE,EAST PERIM SPC TE12 ZONE RETURN PLENUM INLET,1,0
   Controlled Zone Inlet,1,EAST PERIM SPC TE12,EAST PERIM SPC TE12 ZONE EQUIP INLET,EAST PERIM SPC TE12 ZONE EQUIP INLET,N/A
 Controlled Zone,NORTH PERIM SPC TN13,NORTH PERIM SPC TN13 EQUIPMENT,,NORTH PERIM SPC TN13 ZONE AIR NODE,NORTH PERIM SPC TN13 ZONE RETURN PLENUM INLET,1,0
   Controlled Zone Inlet,1,NORTH PERIM SPC TN13,NORTH PERIM SPC TN13 ZONE EQUIP INLET,NORTH PERIM SPC TN13 ZONE EQUIP INLET,N/A
 Controlled Zone,WEST PERIM SPC TW14,WEST PERIM SPC TW14 EQUIPMENT,,WEST PERIM SPC TW14 ZONE AIR NODE,WEST PERIM SPC TW14 ZONE RETURN PLENUM INLET,1,0
   Controlled Zone Inlet,1,WEST PERIM SPC TW14,WEST PERIM SPC TW14 ZONE EQUIP INLET,WEST PERIM SPC TW14 ZONE EQUIP INLET,N/A
 Controlled Zone,CORE SPC TC15,CORE SPC TC15 EQUIPMENT,,CORE SPC TC15 ZONE AIR NODE,CORE SPC TC15 ZONE RETURN PLENUM INLET,1,1
   Controlled Zone Inlet,1,CORE SPC TC15,CORE SPC TC15 ZONE EQUIP INLET,CORE SPC TC15 ZONE EQUIP INLET,N/A
   Controlled Zone Exhaust,1,CORE SPC TC15,CORE SPC TC15 EXHAUST FAN NODE
! ===============================================================
! <#Zone Equipment Lists>,<Number of Zone Equipment Lists>
 #Zone Equipment Lists,10
! <Zone Equipment List>,<Zone Equipment List Count>,<Zone Equipment List Name>,<Zone Name>,<Number of Components>
! <Zone Equipment Component>,<Component Count>,<Component Type>,<Component Name>,<Zone Name>,<Heating Priority>,<Cooling Priority>
 Zone Equipment List,1,SOUTH PERIM SPC GS1 EQUIPMENT,SOUTH PERIM SPC GS1,1
   Zone Equipment Component,1,AIRTERMINAL:SINGLEDUCT:UNCONTROLLED,SOUTH PERIM SPC GS1 DIRECT AIR,SOUTH PERIM SPC GS1,1,1
 Zone Equipment List,2,EAST PERIM SPC GE2 EQUIPMENT,EAST PERIM SPC GE2,1
   Zone Equipment Component,1,AIRTERMINAL:SINGLEDUCT:UNCONTROLLED,EAST PERIM SPC GE2 DIRECT AIR,EAST PERIM SPC GE2,1,1
 Zone Equipment List,3,NORTH PERIM SPC GN3 EQUIPMENT,NORTH PERIM SPC GN3,1
   Zone Equipment Component,1,AIRTERMINAL:SINGLEDUCT:UNCONTROLLED,NORTH PERIM SPC GN3 DIRECT AIR,NORTH PERIM SPC GN3,1,1
 Zone Equipment List,4,WEST PERIM SPC GW4 EQUIPMENT,WEST PERIM SPC GW4,1
   Zone Equipment Component,1,AIRTERMINAL:SINGLEDUCT:UNCONTROLLED,WEST PERIM SPC GW4 DIRECT AIR,WEST PERIM SPC GW4,1,1
 Zone Equipment List,5,CORE SPC GC5 EQUIPMENT,CORE SPC GC5,2
   Zone Equipment Component,1,AIRTERMINAL:SINGLEDUCT:UNCONTROLLED,CORE SPC GC5 DIRECT AIR,CORE SPC GC5,1,1
   Zone Equipment Component,2,FAN:ZONEEXHAUST,CORE SPC GC5 BATHROOM EXHAUST,CORE SPC GC5,2,2
 Zone Equipment List,11,SOUTH PERIM SPC TS11 EQUIPMENT,SOUTH PERIM SPC TS11,1
   Zone Equipment Component,1,AIRTERMINAL:SINGLEDUCT:UNCONTROLLED,SOUTH PERIM SPC TS11 DIRECT AIR,SOUTH PERIM SPC TS11,1,1
 Zone Equipment List,12,EAST PERIM SPC TE12 EQUIPMENT,EAST PERIM SPC TE12,1
   Zone Equipment Component,1,AIRTERMINAL:SINGLEDUCT:UNCONTROLLED,EAST PERIM SPC TE12 DIRECT AIR,EAST PERIM SPC TE12,1,1
 Zone Equipment List,13,NORTH PERIM SPC TN13 EQUIPMENT,NORTH PERIM SPC TN13,1
   Zone Equipment Component,1,AIRTERMINAL:SINGLEDUCT:UNCONTROLLED,NORTH PERIM SPC TN13 DIRECT AIR,NORTH PERIM SPC TN13,1,1
 Zone Equipment List,14,WEST PERIM SPC TW14 EQUIPMENT,WEST PERIM SPC TW14,1
   Zone Equipment Component,1,AIRTERMINAL:SINGLEDUCT:UNCONTROLLED,WEST PERIM SPC TW14 DIRECT AIR,WEST PERIM SPC TW14,1,1
 Zone Equipment List,15,CORE SPC TC15 EQUIPMENT,CORE SPC TC15,2
   Zone Equipment Component,1,AIRTERMINAL:SINGLEDUCT:UNCONTROLLED,CORE SPC TC15 DIRECT AIR,CORE SPC TC15,1,1
   Zone Equipment Component,2,FAN:ZONEEXHAUST,CORE SPC TC15 BATHROOM EXHAUST,CORE SPC TC15,2,2
! ===============================================================
! <#AirLoopHVACs>,<Number of AirLoopHVACs>
 #AirLoopHVACs,10
! <AirLoopHVAC>,<Air Loop Name>,<# Return Nodes>,<# Supply Nodes>,<# Zones Cooled>,<# Zones Heated>,<Outdoor Air Used>
! <AirLoop Return Connections>,<Connection Count>,<AirLoopHVAC Name>,<Zn Eqp Return Node #>,<Zn Eqp Return Node Name>,<AirLoop Return Node #>,<Air Loop Return Node Name>
! <AirLoop Supply Connections>,<Connection Count>,<AirLoopHVAC Name>,<Zn Eqp Supply Node #>,<Zn Eqp Supply Node Name>,<AirLoop Supply Node #>,<Air Loop Supply Node Name>
! <Cooled Zone Info>,<Cooled Zone Count>,<Cooled Zone Name>,<Cooled Zone Inlet Node #>,<Cooled Zone Inlet Node Name>,<AirLoopHVAC Name>
! <Heated Zone Info>,<Heated Zone Count>,<Heated Zone Name>,<Heated Zone Inlet Node #>,<Heated Zone Inlet Node Name>,<AirLoopHVAC Name>
! <Outdoor Air Connections>,<OA Inlet Node #>,<OA Return Air Inlet Node Name>,<OA Outlet Node #>,<OA Mixed Air Outlet Node Name>,<AirLoopHVAC Name>
! <AirLoopHVAC Connector>,<Connector Type>,<Connector Name>,<Loop Name>,<Loop Type>,<Number of Inlets/Outlets>
! <AirLoopHVAC Connector Branches>,<Connector Node Count>,<Connector Type>,<Connector Name>,<Inlet Branch>,<Outlet Branch>,<Loop Name>,<Loop Type>
! <AirLoopHVAC Connector Nodes>,<Connector Node Count>,<Connector Type>,<Connector Name>,<Inlet Node>,<Outlet Node>,<Loop Name>,<Loop Type>
 AirLoopHVAC,PSZ-1 SOUTH F2,1,1,1,0,Yes
   AirLoop Return Connections,1,PSZ-1 SOUTH F2,121,PSZ-1 SOUTH F2 RETURN AIR OUTLET,1,PSZ-1 SOUTH F2 AIR LOOP INLET
   AirLoop Supply Connections,1,PSZ-1 SOUTH F2,111,PSZ-1 SOUTH F2 SUPPLY PATH INLET,3,PSZ-1 SOUTH F2 AIR LOOP OUTLET
   Cooled Zone Info,1,SOUTH PERIM SPC TS11,70,SOUTH PERIM SPC TS11 ZONE EQUIP INLET,PSZ-1 SOUTH F2
   Outdoor Air Connections,1,PSZ-1 SOUTH F2 AIR LOOP INLET,2,PSZ-1 SOUTH F2 MIXED AIR OUTLET,PSZ-1 SOUTH F2
 AirLoopHVAC,PSZ-2 EAST F2,1,1,1,0,Yes
   AirLoop Return Connections,1,PSZ-2 EAST F2,122,PSZ-2 EAST F2 RETURN AIR OUTLET,4,PSZ-2 EAST F2 AIR LOOP INLET
   AirLoop Supply Connections,1,PSZ-2 EAST F2,112,PSZ-2 EAST F2 SUPPLY PATH INLET,6,PSZ-2 EAST F2 AIR LOOP OUTLET
   Cooled Zone Info,1,EAST PERIM SPC TE12,72,EAST PERIM SPC TE12 ZONE EQUIP INLET,PSZ-2 EAST F2
   Outdoor Air Connections,4,PSZ-2 EAST F2 AIR LOOP INLET,5,PSZ-2 EAST F2 MIXED AIR OUTLET,PSZ-2 EAST F2
 AirLoopHVAC,PSZ-3 NORTH F2,1,1,1,0,Yes
   AirLoop Return Connections,1,PSZ-3 NORTH F2,123,PSZ-3 NORTH F2 RETURN AIR OUTLET,7,PSZ-3 NORTH F2 AIR LOOP INLET
   AirLoop Supply Connections,1,PSZ-3 NORTH F2,113,PSZ-3 NORTH F2 SUPPLY PATH INLET,9,PSZ-3 NORTH F2 AIR LOOP OUTLET
   Cooled Zone Info,1,NORTH PERIM SPC TN13,74,NORTH PERIM SPC TN13 ZONE EQUIP INLET,PSZ-3 NORTH F2
   Outdoor Air Connections,7,PSZ-3 NORTH F2 AIR LOOP INLET,8,PSZ-3 NORTH F2 MIXED AIR OUTLET,PSZ-3 NORTH F2
 AirLoopHVAC,PSZ-4 WEST F2,1,1,1,0,Yes
   AirLoop Return Connections,1,PSZ-4 WEST F2,124,PSZ-4 WEST F2 RETURN AIR OUTLET,10,PSZ-4 WEST F2 AIR LOOP INLET
   AirLoop Supply Connections,1,PSZ-4 WEST F2,114,PSZ-4 WEST F2 SUPPLY PATH INLET,12,PSZ-4 WEST F2 AIR LOOP OUTLET
   Cooled Zone Info,1,WEST PERIM SPC TW14,76,WEST PERIM SPC TW14 ZONE EQUIP INLET,PSZ-4 WEST F2
   Outdoor Air Connections,10,PSZ-4 WEST F2 AIR LOOP INLET,11,PSZ-4 WEST F2 MIXED AIR OUTLET,PSZ-4 WEST F2
 AirLoopHVAC,PSZ-5 CORE F2,1,1,1,0,Yes
   AirLoop Return Connections,1,PSZ-5 CORE F2,125,PSZ-5 CORE F2 RETURN AIR OUTLET,13,PSZ-5 CORE F2 AIR LOOP INLET
   AirLoop Supply Connections,1,PSZ-5 CORE F2,115,PSZ-5 CORE F2 SUPPLY PATH INLET,15,PSZ-5 CORE F2 AIR LOOP OUTLET
   Cooled Zone Info,1,CORE SPC TC15,78,CORE SPC TC15 ZONE EQUIP INLET,PSZ-5 CORE F2
   Outdoor Air Connections,13,PSZ-5 CORE F2 AIR LOOP INLET,14,PSZ-5 CORE F2 MIXED AIR OUTLET,PSZ-5 CORE F2
 AirLoopHVAC,PSZ-6 SOUTH F1,1,1,1,0,Yes
   AirLoop Return Connections,1,PSZ-6 SOUTH F1,126,PSZ-6 SOUTH F1 RETURN AIR OUTLET,16,PSZ-6 SOUTH F1 AIR LOOP INLET
   AirLoop Supply Connections,1,PSZ-6 SOUTH F1,116,PSZ-6 SOUTH F1 SUPPLY PATH INLET,18,PSZ-6 SOUTH F1 AIR LOOP OUTLET
   Cooled Zone Info,1,SOUTH PERIM SPC GS1,80,SOUTH PERIM SPC GS1 ZONE EQUIP INLET,PSZ-6 SOUTH F1
   Outdoor Air Connections,16,PSZ-6 SOUTH F1 AIR LOOP INLET,17,PSZ-6 SOUTH F1 MIXED AIR OUTLET,PSZ-6 SOUTH F1
 AirLoopHVAC,PSZ-7 EAST F1,1,1,1,0,Yes
   AirLoop Return Connections,1,PSZ-7 EAST F1,127,PSZ-7 EAST F1 RETURN AIR OUTLET,19,PSZ-7 EAST F1 AIR LOOP INLET
   AirLoop Supply Connections,1,PSZ-7 EAST F1,117,PSZ-7 EAST F1 SUPPLY PATH INLET,21,PSZ-7 EAST F1 AIR LOOP OUTLET
   Cooled Zone Info,1,EAST PERIM SPC GE2,82,EAST PERIM SPC GE2 ZONE EQUIP INLET,PSZ-7 EAST F1
   Outdoor Air Connections,19,PSZ-7 EAST F1 AIR LOOP INLET,20,PSZ-7 EAST F1 MIXED AIR OUTLET,PSZ-7 EAST F1
 AirLoopHVAC,PSZ-8 NORTH F1,1,1,1,0,Yes
   AirLoop Return Connections,1,PSZ-8 NORTH F1,128,PSZ-8 NORTH F1 RETURN AIR OUTLET,22,PSZ-8 NORTH F1 AIR LOOP INLET
   AirLoop Supply Connections,1,PSZ-8 NORTH F1,118,PSZ-8 NORTH F1 SUPPLY PATH INLET,24,PSZ-8 NORTH F1 AIR LOOP OUTLET
   Cooled Zone Info,1,NORTH PERIM SPC GN3,84,NORTH PERIM SPC GN3 ZONE EQUIP INLET,PSZ-8 NORTH F1
   Outdoor Air Connections,22,PSZ-8 NORTH F1 AIR LOOP INLET,23,PSZ-8 NORTH F1 MIXED AIR OUTLET,PSZ-8 NORTH F1
 AirLoopHVAC,PSZ-9 WEST F1,1,1,1,0,Yes
   AirLoop Return Connections,1,PSZ-9 WEST F1,129,PSZ-9 WEST F1 RETURN AIR OUTLET,25,PSZ-9 WEST F1 AIR LOOP INLET
   AirLoop Supply Connections,1,PSZ-9 WEST F1,119,PSZ-9 WEST F1 SUPPLY PATH INLET,27,PSZ-9 WEST F1 AIR LOOP OUTLET
   Cooled Zone Info,1,WEST PERIM SPC GW4,86,WEST PERIM SPC GW4 ZONE EQUIP INLET,PSZ-9 WEST F1
   Outdoor Air Connections,25,PSZ-9 WEST F1 AIR LOOP INLET,26,PSZ-9 WEST F1 MIXED AIR OUTLET,PSZ-9 WEST F1
 AirLoopHVAC,PSZ-10 CORE F1,1,1,1,0,Yes
   AirLoop Return Connections,1,PSZ-10 CORE F1,130,PSZ-10 CORE F1 RETURN AIR OUTLET,28,PSZ-10 CORE F1 AIR LOOP INLET
   AirLoop Supply Connections,1,PSZ-10 CORE F1,120,PSZ-10 CORE F1 SUPPLY PATH INLET,30,PSZ-10 CORE F1 AIR LOOP OUTLET
   Cooled Zone Info,1,CORE SPC GC5,88,CORE SPC GC5 ZONE EQUIP INLET,PSZ-10 CORE F1
   Outdoor Air Connections,28,PSZ-10 CORE F1 AIR LOOP INLET,29,PSZ-10 CORE F1 MIXED AIR OUTLET,PSZ-10 CORE F1
! ===============================================================
! <#Parent Node Connections>,<Number of Parent Node Connections>
 #Parent Node Connections,133
! <Parent Node Connection>,<Node Name>,<Node ObjectType>,<Node ObjectName>,<Node ConnectionType>,<Node FluidStream>
 Parent Node Connection,PSZ-1 SOUTH F2 AIR LOOP INLET,BRANCH,PSZ-1 SOUTH F2 MAIN BRANCH,Inlet,1
 Parent Node Connection,PSZ-1 SOUTH F2 MIXED AIR OUTLET,BRANCH,PSZ-1 SOUTH F2 MAIN BRANCH,Internal,1
 Parent Node Connection,PSZ-1 SOUTH F2 AIR LOOP OUTLET,BRANCH,PSZ-1 SOUTH F2 MAIN BRANCH,Outlet,1
 Parent Node Connection,PSZ-2 EAST F2 AIR LOOP INLET,BRANCH,PSZ-2 EAST F2 MAIN BRANCH,Inlet,1
 Parent Node Connection,PSZ-2 EAST F2 MIXED AIR OUTLET,BRANCH,PSZ-2 EAST F2 MAIN BRANCH,Internal,1
 Parent Node Connection,PSZ-2 EAST F2 AIR LOOP OUTLET,BRANCH,PSZ-2 EAST F2 MAIN BRANCH,Outlet,1
 Parent Node Connection,PSZ-3 NORTH F2 AIR LOOP INLET,BRANCH,PSZ-3 NORTH F2 MAIN BRANCH,Inlet,1
 Parent Node Connection,PSZ-3 NORTH F2 MIXED AIR OUTLET,BRANCH,PSZ-3 NORTH F2 MAIN BRANCH,Internal,1
 Parent Node Connection,PSZ-3 NORTH F2 AIR LOOP OUTLET,BRANCH,PSZ-3 NORTH F2 MAIN BRANCH,Outlet,1
 Parent Node Connection,PSZ-4 WEST F2 AIR LOOP INLET,BRANCH,PSZ-4 WEST F2 MAIN BRANCH,Inlet,1
 Parent Node Connection,PSZ-4 WEST F2 MIXED AIR OUTLET,BRANCH,PSZ-4 WEST F2 MAIN BRANCH,Internal,1
 Parent Node Connection,PSZ-4 WEST F2 AIR LOOP OUTLET,BRANCH,PSZ-4 WEST F2 MAIN BRANCH,Outlet,1
 Parent Node Connection,PSZ-5 CORE F2 AIR LOOP INLET,BRANCH,PSZ-5 CORE F2 MAIN BRANCH,Inlet,1
 Parent Node Connection,PSZ-5 CORE F2 MIXED AIR OUTLET,BRANCH,PSZ-5 CORE F2 MAIN BRANCH,Internal,1
 Parent Node Connection,PSZ-5 CORE F2 AIR LOOP OUTLET,BRANCH,PSZ-5 CORE F2 MAIN BRANCH,Outlet,1
 Parent Node Connection,PSZ-6 SOUTH F1 AIR LOOP INLET,BRANCH,PSZ-6 SOUTH F1 MAIN BRANCH,Inlet,1
 Parent Node Connection,PSZ-6 SOUTH F1 MIXED AIR OUTLET,BRANCH,PSZ-6 SOUTH F1 MAIN BRANCH,Internal,1
 Parent Node Connection,PSZ-6 SOUTH F1 AIR LOOP OUTLET,BRANCH,PSZ-6 SOUTH F1 MAIN BRANCH,Outlet,1
 Parent Node Connection,PSZ-7 EAST F1 AIR LOOP INLET,BRANCH,PSZ-7 EAST F1 MAIN BRANCH,Inlet,1
 Parent Node Connection,PSZ-7 EAST F1 MIXED AIR OUTLET,BRANCH,PSZ-7 EAST F1 MAIN BRANCH,Internal,1
 Parent Node Connection,PSZ-7 EAST F1 AIR LOOP OUTLET,BRANCH,PSZ-7 EAST F1 MAIN BRANCH,Outlet,1
 Parent Node Connection,PSZ-8 NORTH F1 AIR LOOP INLET,BRANCH,PSZ-8 NORTH F1 MAIN BRANCH,Inlet,1
 Parent Node Connection,PSZ-8 NORTH F1 MIXED AIR OUTLET,BRANCH,PSZ-8 NORTH F1 MAIN BRANCH,Internal,1
 Parent Node Connection,PSZ-8 NORTH F1 AIR LOOP OUTLET,BRANCH,PSZ-8 NORTH F1 MAIN BRANCH,Outlet,1
 Parent Node Connection,PSZ-9 WEST F1 AIR LOOP INLET,BRANCH,PSZ-9 WEST F1 MAIN BRANCH,Inlet,1
 Parent Node Connection,PSZ-9 WEST F1 MIXED AIR OUTLET,BRANCH,PSZ-9 WEST F1 MAIN BRANCH,Internal,1
 Parent Node Connection,PSZ-9 WEST F1 AIR LOOP OUTLET,BRANCH,PSZ-9 WEST F1 MAIN BRANCH,Outlet,1
 Parent Node Connection,PSZ-10 CORE F1 AIR LOOP INLET,BRANCH,PSZ-10 CORE F1 MAIN BRANCH,Inlet,1
 Parent Node Connection,PSZ-10 CORE F1 MIXED AIR OUTLET,BRANCH,PSZ-10 CORE F1 MAIN BRANCH,Internal,1
 Parent Node Connection,PSZ-10 CORE F1 AIR LOOP OUTLET,BRANCH,PSZ-10 CORE F1 MAIN BRANCH,Outlet,1
 Parent Node Connection,CORE SPC GC5 WATER EQUIPMENT WATER INLET NODE,BRANCH,SWHSYS1 DEMAND LOAD BRANCH 1,Inlet,1
 Parent Node Connection,CORE SPC GC5 WATER EQUIPMENT WATER OUTLET NODE,BRANCH,SWHSYS1 DEMAND LOAD BRANCH 1,Outlet,1
 Parent Node Connection,CORE SPC TC15 WATER EQUIPMENT WATER INLET NODE,BRANCH,SWHSYS1 DEMAND LOAD BRANCH 2,Inlet,1
 Parent Node Connection,CORE SPC TC15 WATER EQUIPMENT WATER OUTLET NODE,BRANCH,SWHSYS1 DEMAND LOAD BRANCH 2,Outlet,1
 Parent Node Connection,SWHSYS1 DEMAND INLET NODE,BRANCH,SWHSYS1 DEMAND INLET BRANCH,Inlet,1
 Parent Node Connection,SWHSYS1 DEMAND INLET PIPE-SWHSYS1 DEMAND MIXER,BRANCH,SWHSYS1 DEMAND INLET BRANCH,Outlet,1
 Parent Node Connection,SWHSYS1 SUPPLY INLET NODE,BRANCH,SWHSYS1 SUPPLY INLET BRANCH,Inlet,1
 Parent Node Connection,SWHSYS1 PUMP-SWHSYS1 WATER HEATERNODEVIACONNECTOR,BRANCH,SWHSYS1 SUPPLY INLET BRANCH,Outlet,1
 Parent Node Connection,SWHSYS1 PUMP-SWHSYS1 WATER HEATERNODE,BRANCH,SWHSYS1 SUPPLY EQUIPMENT BRANCH,Inlet,1
 Parent Node Connection,SWHSYS1 SUPPLY EQUIPMENT OUTLET NODE,BRANCH,SWHSYS1 SUPPLY EQUIPMENT BRANCH,Outlet,1
 Parent Node Connection,SWHSYS1 SUPPLY EQUIP BYPASS INLET NODE,BRANCH,SWHSYS1 SUPPLY EQUIPMENT BYPASS BRANCH,Inlet,1
 Parent Node Connection,SWHSYS1 SUPPLY EQUIP BYPASS OUTLET NODE,BRANCH,SWHSYS1 SUPPLY EQUIPMENT BYPASS BRANCH,Outlet,1
 Parent Node Connection,SWHSYS1 SUPPLY MIXER-SWHSYS1 SUPPLY OUTLET PIPE,BRANCH,SWHSYS1 SUPPLY OUTLET BRANCH,Inlet,1
 Parent Node Connection,SWHSYS1 SUPPLY OUTLET NODE,BRANCH,SWHSYS1 SUPPLY OUTLET BRANCH,Outlet,1
 Parent Node Connection,SWHSYS1 DEMAND BYPASS PIPE INLET NODE,BRANCH,SWHSYS1 DEMAND BYPASS BRANCH,Inlet,1
 Parent Node Connection,SWHSYS1 DEMAND BYPASS PIPE OUTLET NODE,BRANCH,SWHSYS1 DEMAND BYPASS BRANCH,Outlet,1
 Parent Node Connection,SWHSYS1 DEMAND MIXER-SWHSYS1 DEMAND OUTLET PIPE,BRANCH,SWHSYS1 DEMAND OUTLET BRANCH,Inlet,1
 Parent Node Connection,SWHSYS1 DEMAND OUTLET NODE,BRANCH,SWHSYS1 DEMAND OUTLET BRANCH,Outlet,1
 Parent Node Connection,SWHSYS1 SUPPLY INLET NODE,PLANTLOOP,SWHSYS1,Inlet,1
 Parent Node Connection,SWHSYS1 SUPPLY OUTLET NODE,PLANTLOOP,SWHSYS1,Outlet,1
 Parent Node Connection,SWHSYS1 DEMAND INLET NODE,PLANTLOOP,SWHSYS1,Inlet,1
 Parent Node Connection,SWHSYS1 DEMAND OUTLET NODE,PLANTLOOP,SWHSYS1,Outlet,1
 Parent Node Connection,SWHSYS1 SUPPLY OUTLET NODE,PLANTLOOP,SWHSYS1,Sensor,1
 Parent Node Connection,PSZ-1 SOUTH F2 SUPPLY PATH INLET,AIRLOOPHVAC:SUPPLYPATH,PSZ-1 SOUTH F2 SUPPLY PATH,Inlet,1
 Parent Node Connection,PSZ-2 EAST F2 SUPPLY PATH INLET,AIRLOOPHVAC:SUPPLYPATH,PSZ-2 EAST F2 SUPPLY PATH,Inlet,1
 Parent Node Connection,PSZ-3 NORTH F2 SUPPLY PATH INLET,AIRLOOPHVAC:SUPPLYPATH,PSZ-3 NORTH F2 SUPPLY PATH,Inlet,1
 Parent Node Connection,PSZ-4 WEST F2 SUPPLY PATH INLET,AIRLOOPHVAC:SUPPLYPATH,PSZ-4 WEST F2 SUPPLY PATH,Inlet,1
 Parent Node Connection,PSZ-5 CORE F2 SUPPLY PATH INLET,AIRLOOPHVAC:SUPPLYPATH,PSZ-5 CORE F2 SUPPLY PATH,Inlet,1
 Parent Node Connection,PSZ-6 SOUTH F1 SUPPLY PATH INLET,AIRLOOPHVAC:SUPPLYPATH,PSZ-6 SOUTH F1 SUPPLY PATH,Inlet,1
 Parent Node Connection,PSZ-7 EAST F1 SUPPLY PATH INLET,AIRLOOPHVAC:SUPPLYPATH,PSZ-7 EAST F1 SUPPLY PATH,Inlet,1
 Parent Node Connection,PSZ-8 NORTH F1 SUPPLY PATH INLET,AIRLOOPHVAC:SUPPLYPATH,PSZ-8 NORTH F1 SUPPLY PATH,Inlet,1
 Parent Node Connection,PSZ-9 WEST F1 SUPPLY PATH INLET,AIRLOOPHVAC:SUPPLYPATH,PSZ-9 WEST F1 SUPPLY PATH,Inlet,1
 Parent Node Connection,PSZ-10 CORE F1 SUPPLY PATH INLET,AIRLOOPHVAC:SUPPLYPATH,PSZ-10 CORE F1 SUPPLY PATH,Inlet,1
 Parent Node Connection,PSZ-1 SOUTH F2 RETURN AIR OUTLET,AIRLOOPHVAC:RETURNPATH,PSZ-1 SOUTH F2 RETURN PATH,Outlet,1
 Parent Node Connection,PSZ-2 EAST F2 RETURN AIR OUTLET,AIRLOOPHVAC:RETURNPATH,PSZ-2 EAST F2 RETURN PATH,Outlet,1
 Parent Node Connection,PSZ-3 NORTH F2 RETURN AIR OUTLET,AIRLOOPHVAC:RETURNPATH,PSZ-3 NORTH F2 RETURN PATH,Outlet,1
 Parent Node Connection,PSZ-4 WEST F2 RETURN AIR OUTLET,AIRLOOPHVAC:RETURNPATH,PSZ-4 WEST F2 RETURN PATH,Outlet,1
 Parent Node Connection,PSZ-5 CORE F2 RETURN AIR OUTLET,AIRLOOPHVAC:RETURNPATH,PSZ-5 CORE F2 RETURN PATH,Outlet,1
 Parent Node Connection,PSZ-6 SOUTH F1 RETURN AIR OUTLET,AIRLOOPHVAC:RETURNPATH,PSZ-6 SOUTH F1 RETURN PATH,Outlet,1
 Parent Node Connection,PSZ-7 EAST F1 RETURN AIR OUTLET,AIRLOOPHVAC:RETURNPATH,PSZ-7 EAST F1 RETURN PATH,Outlet,1
 Parent Node Connection,PSZ-8 NORTH F1 RETURN AIR OUTLET,AIRLOOPHVAC:RETURNPATH,PSZ-8 NORTH F1 RETURN PATH,Outlet,1
 Parent Node Connection,PSZ-9 WEST F1 RETURN AIR OUTLET,AIRLOOPHVAC:RETURNPATH,PSZ-9 WEST F1 RETURN PATH,Outlet,1
 Parent Node Connection,PSZ-10 CORE F1 RETURN AIR OUTLET,AIRLOOPHVAC:RETURNPATH,PSZ-10 CORE F1 RETURN PATH,Outlet,1
 Parent Node Connection,PSZ-1 SOUTH F2 AIR LOOP INLET,AIRLOOPHVAC,PSZ-1 SOUTH F2,Inlet,1
 Parent Node Connection,PSZ-1 SOUTH F2 RETURN AIR OUTLET,AIRLOOPHVAC,PSZ-1 SOUTH F2,Outlet,1
 Parent Node Connection,PSZ-1 SOUTH F2 SUPPLY PATH INLET,AIRLOOPHVAC,PSZ-1 SOUTH F2,Inlet,1
 Parent Node Connection,PSZ-1 SOUTH F2 AIR LOOP OUTLET,AIRLOOPHVAC,PSZ-1 SOUTH F2,Outlet,1
 Parent Node Connection,PSZ-2 EAST F2 AIR LOOP INLET,AIRLOOPHVAC,PSZ-2 EAST F2,Inlet,1
 Parent Node Connection,PSZ-2 EAST F2 RETURN AIR OUTLET,AIRLOOPHVAC,PSZ-2 EAST F2,Outlet,1
 Parent Node Connection,PSZ-2 EAST F2 SUPPLY PATH INLET,AIRLOOPHVAC,PSZ-2 EAST F2,Inlet,1
 Parent Node Connection,PSZ-2 EAST F2 AIR LOOP OUTLET,AIRLOOPHVAC,PSZ-2 EAST F2,Outlet,1
 Parent Node Connection,PSZ-3 NORTH F2 AIR LOOP INLET,AIRLOOPHVAC,PSZ-3 NORTH F2,Inlet,1
 Parent Node Connection,PSZ-3 NORTH F2 RETURN AIR OUTLET,AIRLOOPHVAC,PSZ-3 NORTH F2,Outlet,1
 Parent Node Connection,PSZ-3 NORTH F2 SUPPLY PATH INLET,AIRLOOPHVAC,PSZ-3 NORTH F2,Inlet,1
 Parent Node Connection,PSZ-3 NORTH F2 AIR LOOP OUTLET,AIRLOOPHVAC,PSZ-3 NORTH F2,Outlet,1
 Parent Node Connection,PSZ-4 WEST F2 AIR LOOP INLET,AIRLOOPHVAC,PSZ-4 WEST F2,Inlet,1
 Parent Node Connection,PSZ-4 WEST F2 RETURN AIR OUTLET,AIRLOOPHVAC,PSZ-4 WEST F2,Outlet,1
 Parent Node Connection,PSZ-4 WEST F2 SUPPLY PATH INLET,AIRLOOPHVAC,PSZ-4 WEST F2,Inlet,1
 Parent Node Connection,PSZ-4 WEST F2 AIR LOOP OUTLET,AIRLOOPHVAC,PSZ-4 WEST F2,Outlet,1
 Parent Node Connection,PSZ-5 CORE F2 AIR LOOP INLET,AIRLOOPHVAC,PSZ-5 CORE F2,Inlet,1
 Parent Node Connection,PSZ-5 CORE F2 RETURN AIR OUTLET,AIRLOOPHVAC,PSZ-5 CORE F2,Outlet,1
 Parent Node Connection,PSZ-5 CORE F2 SUPPLY PATH INLET,AIRLOOPHVAC,PSZ-5 CORE F2,Inlet,1
 Parent Node Connection,PSZ-5 CORE F2 AIR LOOP OUTLET,AIRLOOPHVAC,PSZ-5 CORE F2,Outlet,1
 Parent Node Connection,PSZ-6 SOUTH F1 AIR LOOP INLET,AIRLOOPHVAC,PSZ-6 SOUTH F1,Inlet,1
 Parent Node Connection,PSZ-6 SOUTH F1 RETURN AIR OUTLET,AIRLOOPHVAC,PSZ-6 SOUTH F1,Outlet,1
 Parent Node Connection,PSZ-6 SOUTH F1 SUPPLY PATH INLET,AIRLOOPHVAC,PSZ-6 SOUTH F1,Inlet,1
 Parent Node Connection,PSZ-6 SOUTH F1 AIR LOOP OUTLET,AIRLOOPHVAC,PSZ-6 SOUTH F1,Outlet,1
 Parent Node Connection,PSZ-7 EAST F1 AIR LOOP INLET,AIRLOOPHVAC,PSZ-7 EAST F1,Inlet,1
 Parent Node Connection,PSZ-7 EAST F1 RETURN AIR OUTLET,AIRLOOPHVAC,PSZ-7 EAST F1,Outlet,1
 Parent Node Connection,PSZ-7 EAST F1 SUPPLY PATH INLET,AIRLOOPHVAC,PSZ-7 EAST F1,Inlet,1
 Parent Node Connection,PSZ-7 EAST F1 AIR LOOP OUTLET,AIRLOOPHVAC,PSZ-7 EAST F1,Outlet,1
 Parent Node Connection,PSZ-8 NORTH F1 AIR LOOP INLET,AIRLOOPHVAC,PSZ-8 NORTH F1,Inlet,1
 Parent Node Connection,PSZ-8 NORTH F1 RETURN AIR OUTLET,AIRLOOPHVAC,PSZ-8 NORTH F1,Outlet,1
 Parent Node Connection,PSZ-8 NORTH F1 SUPPLY PATH INLET,AIRLOOPHVAC,PSZ-8 NORTH F1,Inlet,1
 Parent Node Connection,PSZ-8 NORTH F1 AIR LOOP OUTLET,AIRLOOPHVAC,PSZ-8 NORTH F1,Outlet,1
 Parent Node Connection,PSZ-9 WEST F1 AIR LOOP INLET,AIRLOOPHVAC,PSZ-9 WEST F1,Inlet,1
 Parent Node Connection,PSZ-9 WEST F1 RETURN AIR OUTLET,AIRLOOPHVAC,PSZ-9 WEST F1,Outlet,1
 Parent Node Connection,PSZ-9 WEST F1 SUPPLY PATH INLET,AIRLOOPHVAC,PSZ-9 WEST F1,Inlet,1
 Parent Node Connection,PSZ-9 WEST F1 AIR LOOP OUTLET,AIRLOOPHVAC,PSZ-9 WEST F1,Outlet,1
 Parent Node Connection,PSZ-10 CORE F1 AIR LOOP INLET,AIRLOOPHVAC,PSZ-10 CORE F1,Inlet,1
 Parent Node Connection,PSZ-10 CORE F1 RETURN AIR OUTLET,AIRLOOPHVAC,PSZ-10 CORE F1,Outlet,1
 Parent Node Connection,PSZ-10 CORE F1 SUPPLY PATH INLET,AIRLOOPHVAC,PSZ-10 CORE F1,Inlet,1
 Parent Node Connection,PSZ-10 CORE F1 AIR LOOP OUTLET,AIRLOOPHVAC,PSZ-10 CORE F1,Outlet,1
 Parent Node Connection,PSZ-1 SOUTH F2 MIXED AIR OUTLET,AIRLOOPHVAC:UNITARY:FURNACE:HEATCOOL,PSZ-1 SOUTH F2 FURNACE WITH DX COOLING,Inlet,1
 Parent Node Connection,PSZ-1 SOUTH F2 AIR LOOP OUTLET,AIRLOOPHVAC:UNITARY:FURNACE:HEATCOOL,PSZ-1 SOUTH F2 FURNACE WITH DX COOLING,Outlet,1
 Parent Node Connection,PSZ-2 EAST F2 MIXED AIR OUTLET,AIRLOOPHVAC:UNITARY:FURNACE:HEATCOOL,PSZ-2 EAST F2 FURNACE WITH DX COOLING,Inlet,1
 Parent Node Connection,PSZ-2 EAST F2 AIR LOOP OUTLET,AIRLOOPHVAC:UNITARY:FURNACE:HEATCOOL,PSZ-2 EAST F2 FURNACE WITH DX COOLING,Outlet,1
 Parent Node Connection,PSZ-3 NORTH F2 MIXED AIR OUTLET,AIRLOOPHVAC:UNITARY:FURNACE:HEATCOOL,PSZ-3 NORTH F2 FURNACE WITH DX COOLING,Inlet,1
 Parent Node Connection,PSZ-3 NORTH F2 AIR LOOP OUTLET,AIRLOOPHVAC:UNITARY:FURNACE:HEATCOOL,PSZ-3 NORTH F2 FURNACE WITH DX COOLING,Outlet,1
 Parent Node Connection,PSZ-4 WEST F2 MIXED AIR OUTLET,AIRLOOPHVAC:UNITARY:FURNACE:HEATCOOL,PSZ-4 WEST F2 FURNACE WITH DX COOLING,Inlet,1
 Parent Node Connection,PSZ-4 WEST F2 AIR LOOP OUTLET,AIRLOOPHVAC:UNITARY:FURNACE:HEATCOOL,PSZ-4 WEST F2 FURNACE WITH DX COOLING,Outlet,1
 Parent Node Connection,PSZ-5 CORE F2 MIXED AIR OUTLET,AIRLOOPHVAC:UNITARY:FURNACE:HEATCOOL,PSZ-5 CORE F2 FURNACE WITH DX COOLING,Inlet,1
 Parent Node Connection,PSZ-5 CORE F2 AIR LOOP OUTLET,AIRLOOPHVAC:UNITARY:FURNACE:HEATCOOL,PSZ-5 CORE F2 FURNACE WITH DX COOLING,Outlet,1
 Parent Node Connection,PSZ-6 SOUTH F1 MIXED AIR OUTLET,AIRLOOPHVAC:UNITARY:FURNACE:HEATCOOL,PSZ-6 SOUTH F1 FURNACE WITH DX COOLING,Inlet,1
 Parent Node Connection,PSZ-6 SOUTH F1 AIR LOOP OUTLET,AIRLOOPHVAC:UNITARY:FURNACE:HEATCOOL,PSZ-6 SOUTH F1 FURNACE WITH DX COOLING,Outlet,1
 Parent Node Connection,PSZ-7 EAST F1 MIXED AIR OUTLET,AIRLOOPHVAC:UNITARY:FURNACE:HEATCOOL,PSZ-7 EAST F1 FURNACE WITH DX COOLING,Inlet,1
 Parent Node Connection,PSZ-7 EAST F1 AIR LOOP OUTLET,AIRLOOPHVAC:UNITARY:FURNACE:HEATCOOL,PSZ-7 EAST F1 FURNACE WITH DX COOLING,Outlet,1
 Parent Node Connection,PSZ-8 NORTH F1 MIXED AIR OUTLET,AIRLOOPHVAC:UNITARY:FURNACE:HEATCOOL,PSZ-8 NORTH F1 FURNACE WITH DX COOLING,Inlet,1
 Parent Node Connection,PSZ-8 NORTH F1 AIR LOOP OUTLET,AIRLOOPHVAC:UNITARY:FURNACE:HEATCOOL,PSZ-8 NORTH F1 FURNACE WITH DX COOLING,Outlet,1
 Parent Node Connection,PSZ-9 WEST F1 MIXED AIR OUTLET,AIRLOOPHVAC:UNITARY:FURNACE:HEATCOOL,PSZ-9 WEST F1 FURNACE WITH DX COOLING,Inlet,1
 Parent Node Connection,PSZ-9 WEST F1 AIR LOOP OUTLET,AIRLOOPHVAC:UNITARY:FURNACE:HEATCOOL,PSZ-9 WEST F1 FURNACE WITH DX COOLING,Outlet,1
 Parent Node Connection,PSZ-10 CORE F1 MIXED AIR OUTLET,AIRLOOPHVAC:UNITARY:FURNACE:HEATCOOL,PSZ-10 CORE F1 FURNACE WITH DX COOLING,Inlet,1
 Parent Node Connection,PSZ-10 CORE F1 AIR LOOP OUTLET,AIRLOOPHVAC:UNITARY:FURNACE:HEATCOOL,PSZ-10 CORE F1 FURNACE WITH DX COOLING,Outlet,1
! ===============================================================
! <#Non-Parent Node Connections>,<Number of Non-Parent Node Connections>
 #Non-Parent Node Connections,379
! <Non-Parent Node Connection>,<Node Name>,<Node ObjectType>,<Node ObjectName>,<Node ConnectionType>,<Node FluidStream>
 Non-Parent Node Connection,SWHSYS1 PUMP-SWHSYS1 WATER HEATERNODE,WATERHEATER:MIXED,SWHSYS1 WATER HEATER,Inlet,1
 Non-Parent Node Connection,SWHSYS1 SUPPLY EQUIPMENT OUTLET NODE,WATERHEATER:MIXED,SWHSYS1 WATER HEATER,Outlet,1
 Non-Parent Node Connection,PSZ-1 SOUTH F2 OUTSIDE AIR INLET,OUTDOORAIR:NODELIST,OutdoorAir:NodeList,OutdoorAir,1
[...]
 Non-Parent Node Connection,CORE SPC GC5 ZONE RETURN PLENUM INLET,AIRLOOPHVAC:RETURNPLENUM,CORE SPC GC5 ZONE RETURN PLENUM,Inlet,1
 Non-Parent Node Connection,CORE PLNM TC20 ZONE AIR NODE,AIRLOOPHVAC:RETURNPLENUM,CORE SPC TC15 ZONE RETURN PLENUM,ZoneNode,1
 Non-Parent Node Connection,CORE SPC TC15 RETURN OUTLET,AIRLOOPHVAC:RETURNPLENUM,CORE SPC TC15 ZONE RETURN PLENUM,Outlet,1
 Non-Parent Node Connection,CORE SPC TC15 ZONE RETURN PLENUM INLET,AIRLOOPHVAC:RETURNPLENUM,CORE SPC TC15 ZONE RETURN PLENUM,Inlet,1
 Non-Parent Node Connection,PSZ-1 SOUTH F2 RETURN AIR OUTLET,AIRLOOPHVAC:ZONEMIXER,PSZ-1 SOUTH F2 ZONE MIXER,Outlet,1
 Non-Parent Node Connection,SOUTH PERIM SPC TS11 RETURN OUTLET,AIRLOOPHVAC:ZONEMIXER,PSZ-1 SOUTH F2 ZONE MIXER,Inlet,1
 Non-Parent Node Connection,PSZ-2 EAST F2 RETURN AIR OUTLET,AIRLOOPHVAC:ZONEMIXER,PSZ-2 EAST F2 ZONE MIXER,Outlet,1
 Non-Parent Node Connection,EAST PERIM SPC TE12 RETURN OUTLET,AIRLOOPHVAC:ZONEMIXER,PSZ-2 EAST F2 ZONE MIXER,Inlet,1
 Non-Parent Node Connection,PSZ-3 NORTH F2 RETURN AIR OUTLET,AIRLOOPHVAC:ZONEMIXER,PSZ-3 NORTH F2 ZONE MIXER,Outlet,1
 Non-Parent Node Connection,NORTH PERIM SPC TN13 RETURN OUTLET,AIRLOOPHVAC:ZONEMIXER,PSZ-3 NORTH F2 ZONE MIXER,Inlet,1
 Non-Parent Node Connection,PSZ-4 WEST F2 RETURN AIR OUTLET,AIRLOOPHVAC:ZONEMIXER,PSZ-4 WEST F2 ZONE MIXER,Outlet,1
 Non-Parent Node Connection,WEST PERIM SPC TW14 RETURN OUTLET,AIRLOOPHVAC:ZONEMIXER,PSZ-4 WEST F2 ZONE MIXER,Inlet,1
 Non-Parent Node Connection,PSZ-5 CORE F2 RETURN AIR OUTLET,AIRLOOPHVAC:ZONEMIXER,PSZ-5 CORE F2 ZONE MIXER,Outlet,1
 Non-Parent Node Connection,CORE SPC TC15 RETURN OUTLET,AIRLOOPHVAC:ZONEMIXER,PSZ-5 CORE F2 ZONE MIXER,Inlet,1
 Non-Parent Node Connection,PSZ-6 SOUTH F1 RETURN AIR OUTLET,AIRLOOPHVAC:ZONEMIXER,PSZ-6 SOUTH F1 ZONE MIXER,Outlet,1
 Non-Parent Node Connection,SOUTH PERIM SPC GS1 RETURN OUTLET,AIRLOOPHVAC:ZONEMIXER,PSZ-6 SOUTH F1 ZONE MIXER,Inlet,1
 Non-Parent Node Connection,PSZ-7 EAST F1 RETURN AIR OUTLET,AIRLOOPHVAC:ZONEMIXER,PSZ-7 EAST F1 ZONE MIXER,Outlet,1
 Non-Parent Node Connection,EAST PERIM SPC GE2 RETURN OUTLET,AIRLOOPHVAC:ZONEMIXER,PSZ-7 EAST F1 ZONE MIXER,Inlet,1
 Non-Parent Node Connection,PSZ-8 NORTH F1 RETURN AIR OUTLET,AIRLOOPHVAC:ZONEMIXER,PSZ-8 NORTH F1 ZONE MIXER,Outlet,1
 Non-Parent Node Connection,NORTH PERIM SPC GN3 RETURN OUTLET,AIRLOOPHVAC:ZONEMIXER,PSZ-8 NORTH F1 ZONE MIXER,Inlet,1
 Non-Parent Node Connection,PSZ-9 WEST F1 RETURN AIR OUTLET,AIRLOOPHVAC:ZONEMIXER,PSZ-9 WEST F1 ZONE MIXER,Outlet,1
 Non-Parent Node Connection,WEST PERIM SPC GW4 RETURN OUTLET,AIRLOOPHVAC:ZONEMIXER,PSZ-9 WEST F1 ZONE MIXER,Inlet,1
 Non-Parent Node Connection,PSZ-10 CORE F1 RETURN AIR OUTLET,AIRLOOPHVAC:ZONEMIXER,PSZ-10 CORE F1 ZONE MIXER,Outlet,1
 Non-Parent Node Connection,CORE SPC GC5 RETURN OUTLET,AIRLOOPHVAC:ZONEMIXER,PSZ-10 CORE F1 ZONE MIXER,Inlet,1
 Non-Parent Node Connection,PSZ-1 SOUTH F2 MIXED AIR OUTLET,OUTDOORAIR:MIXER,PSZ-1 SOUTH F2 OA MIXING BOX,Outlet,1
 Non-Parent Node Connection,PSZ-1 SOUTH F2 OUTSIDE AIR INLET,OUTDOORAIR:MIXER,PSZ-1 SOUTH F2 OA MIXING BOX,Inlet,1
 Non-Parent Node Connection,PSZ-1 SOUTH F2 RELIEF AIR OUTLET,OUTDOORAIR:MIXER,PSZ-1 SOUTH F2 OA MIXING BOX,ReliefAir,1
 Non-Parent Node Connection,PSZ-1 SOUTH F2 AIR LOOP INLET,OUTDOORAIR:MIXER,PSZ-1 SOUTH F2 OA MIXING BOX,Inlet,1
 Non-Parent Node Connection,PSZ-2 EAST F2 MIXED AIR OUTLET,OUTDOORAIR:MIXER,PSZ-2 EAST F2 OA MIXING BOX,Outlet,1
 Non-Parent Node Connection,PSZ-2 EAST F2 OUTSIDE AIR INLET,OUTDOORAIR:MIXER,PSZ-2 EAST F2 OA MIXING BOX,Inlet,1
 Non-Parent Node Connection,PSZ-2 EAST F2 RELIEF AIR OUTLET,OUTDOORAIR:MIXER,PSZ-2 EAST F2 OA MIXING BOX,ReliefAir,1
 Non-Parent Node Connection,PSZ-2 EAST F2 AIR LOOP INLET,OUTDOORAIR:MIXER,PSZ-2 EAST F2 OA MIXING BOX,Inlet,1
 Non-Parent Node Connection,PSZ-3 NORTH F2 MIXED AIR OUTLET,OUTDOORAIR:MIXER,PSZ-3 NORTH F2 OA MIXING BOX,Outlet,1
 Non-Parent Node Connection,PSZ-3 NORTH F2 OUTSIDE AIR INLET,OUTDOORAIR:MIXER,PSZ-3 NORTH F2 OA MIXING BOX,Inlet,1
 Non-Parent Node Connection,PSZ-3 NORTH F2 RELIEF AIR OUTLET,OUTDOORAIR:MIXER,PSZ-3 NORTH F2 OA MIXING BOX,ReliefAir,1
 Non-Parent Node Connection,PSZ-3 NORTH F2 AIR LOOP INLET,OUTDOORAIR:MIXER,PSZ-3 NORTH F2 OA MIXING BOX,Inlet,1
 Non-Parent Node Connection,PSZ-4 WEST F2 MIXED AIR OUTLET,OUTDOORAIR:MIXER,PSZ-4 WEST F2 OA MIXING BOX,Outlet,1
 Non-Parent Node Connection,PSZ-4 WEST F2 OUTSIDE AIR INLET,OUTDOORAIR:MIXER,PSZ-4 WEST F2 OA MIXING BOX,Inlet,1
 Non-Parent Node Connection,PSZ-4 WEST F2 RELIEF AIR OUTLET,OUTDOORAIR:MIXER,PSZ-4 WEST F2 OA MIXING BOX,ReliefAir,1
 Non-Parent Node Connection,PSZ-4 WEST F2 AIR LOOP INLET,OUTDOORAIR:MIXER,PSZ-4 WEST F2 OA MIXING BOX,Inlet,1
 Non-Parent Node Connection,PSZ-5 CORE F2 MIXED AIR OUTLET,OUTDOORAIR:MIXER,PSZ-5 CORE F2 OA MIXING BOX,Outlet,1
 Non-Parent Node Connection,PSZ-5 CORE F2 OUTSIDE AIR INLET,OUTDOORAIR:MIXER,PSZ-5 CORE F2 OA MIXING BOX,Inlet,1
 Non-Parent Node Connection,PSZ-5 CORE F2 RELIEF AIR OUTLET,OUTDOORAIR:MIXER,PSZ-5 CORE F2 OA MIXING BOX,ReliefAir,1
 Non-Parent Node Connection,PSZ-5 CORE F2 AIR LOOP INLET,OUTDOORAIR:MIXER,PSZ-5 CORE F2 OA MIXING BOX,Inlet,1
 Non-Parent Node Connection,PSZ-6 SOUTH F1 MIXED AIR OUTLET,OUTDOORAIR:MIXER,PSZ-6 SOUTH F1 OA MIXING BOX,Outlet,1
 Non-Parent Node Connection,PSZ-6 SOUTH F1 OUTSIDE AIR INLET,OUTDOORAIR:MIXER,PSZ-6 SOUTH F1 OA MIXING BOX,Inlet,1
 Non-Parent Node Connection,PSZ-6 SOUTH F1 RELIEF AIR OUTLET,OUTDOORAIR:MIXER,PSZ-6 SOUTH F1 OA MIXING BOX,ReliefAir,1
 Non-Parent Node Connection,PSZ-6 SOUTH F1 AIR LOOP INLET,OUTDOORAIR:MIXER,PSZ-6 SOUTH F1 OA MIXING BOX,Inlet,1
 Non-Parent Node Connection,PSZ-7 EAST F1 MIXED AIR OUTLET,OUTDOORAIR:MIXER,PSZ-7 EAST F1 OA MIXING BOX,Outlet,1
 Non-Parent Node Connection,PSZ-7 EAST F1 OUTSIDE AIR INLET,OUTDOORAIR:MIXER,PSZ-7 EAST F1 OA MIXING BOX,Inlet,1
 Non-Parent Node Connection,PSZ-7 EAST F1 RELIEF AIR OUTLET,OUTDOORAIR:MIXER,PSZ-7 EAST F1 OA MIXING BOX,ReliefAir,1
 Non-Parent Node Connection,PSZ-7 EAST F1 AIR LOOP INLET,OUTDOORAIR:MIXER,PSZ-7 EAST F1 OA MIXING BOX,Inlet,1
 Non-Parent Node Connection,PSZ-8 NORTH F1 MIXED AIR OUTLET,OUTDOORAIR:MIXER,PSZ-8 NORTH F1 OA MIXING BOX,Outlet,1
 Non-Parent Node Connection,PSZ-8 NORTH F1 OUTSIDE AIR INLET,OUTDOORAIR:MIXER,PSZ-8 NORTH F1 OA MIXING BOX,Inlet,1
 Non-Parent Node Connection,PSZ-8 NORTH F1 RELIEF AIR OUTLET,OUTDOORAIR:MIXER,PSZ-8 NORTH F1 OA MIXING BOX,ReliefAir,1
 Non-Parent Node Connection,PSZ-8 NORTH F1 AIR LOOP INLET,OUTDOORAIR:MIXER,PSZ-8 NORTH F1 OA MIXING BOX,Inlet,1
 Non-Parent Node Connection,PSZ-9 WEST F1 MIXED AIR OUTLET,OUTDOORAIR:MIXER,PSZ-9 WEST F1 OA MIXING BOX,Outlet,1
 Non-Parent Node Connection,PSZ-9 WEST F1 OUTSIDE AIR INLET,OUTDOORAIR:MIXER,PSZ-9 WEST F1 OA MIXING BOX,Inlet,1
 Non-Parent Node Connection,PSZ-9 WEST F1 RELIEF AIR OUTLET,OUTDOORAIR:MIXER,PSZ-9 WEST F1 OA MIXING BOX,ReliefAir,1
 Non-Parent Node Connection,PSZ-9 WEST F1 AIR LOOP INLET,OUTDOORAIR:MIXER,PSZ-9 WEST F1 OA MIXING BOX,Inlet,1
 Non-Parent Node Connection,PSZ-10 CORE F1 MIXED AIR OUTLET,OUTDOORAIR:MIXER,PSZ-10 CORE F1 OA MIXING BOX,Outlet,1
 Non-Parent Node Connection,PSZ-10 CORE F1 OUTSIDE AIR INLET,OUTDOORAIR:MIXER,PSZ-10 CORE F1 OA MIXING BOX,Inlet,1
 Non-Parent Node Connection,PSZ-10 CORE F1 RELIEF AIR OUTLET,OUTDOORAIR:MIXER,PSZ-10 CORE F1 OA MIXING BOX,ReliefAir,1
 Non-Parent Node Connection,PSZ-10 CORE F1 AIR LOOP INLET,OUTDOORAIR:MIXER,PSZ-10 CORE F1 OA MIXING BOX,Inlet,1
 Non-Parent Node Connection,PSZ-1 SOUTH F2 MIXED AIR OUTLET,CONTROLLER:OUTDOORAIR,PSZ-1 SOUTH F2 OA CONTROLLER,Sensor,1
 Non-Parent Node Connection,PSZ-1 SOUTH F2 OUTSIDE AIR INLET,CONTROLLER:OUTDOORAIR,PSZ-1 SOUTH F2 OA CONTROLLER,Actuator,1
 Non-Parent Node Connection,PSZ-1 SOUTH F2 RELIEF AIR OUTLET,CONTROLLER:OUTDOORAIR,PSZ-1 SOUTH F2 OA CONTROLLER,Actuator,1
 Non-Parent Node Connection,PSZ-1 SOUTH F2 AIR LOOP INLET,CONTROLLER:OUTDOORAIR,PSZ-1 SOUTH F2 OA CONTROLLER,Sensor,1
 Non-Parent Node Connection,PSZ-2 EAST F2 MIXED AIR OUTLET,CONTROLLER:OUTDOORAIR,PSZ-2 EAST F2 OA CONTROLLER,Sensor,1
 Non-Parent Node Connection,PSZ-2 EAST F2 OUTSIDE AIR INLET,CONTROLLER:OUTDOORAIR,PSZ-2 EAST F2 OA CONTROLLER,Actuator,1
 Non-Parent Node Connection,PSZ-2 EAST F2 RELIEF AIR OUTLET,CONTROLLER:OUTDOORAIR,PSZ-2 EAST F2 OA CONTROLLER,Actuator,1
 Non-Parent Node Connection,PSZ-2 EAST F2 AIR LOOP INLET,CONTROLLER:OUTDOORAIR,PSZ-2 EAST F2 OA CONTROLLER,Sensor,1
 Non-Parent Node Connection,PSZ-3 NORTH F2 MIXED AIR OUTLET,CONTROLLER:OUTDOORAIR,PSZ-3 NORTH F2 OA CONTROLLER,Sensor,1
 Non-Parent Node Connection,PSZ-3 NORTH F2 OUTSIDE AIR INLET,CONTROLLER:OUTDOORAIR,PSZ-3 NORTH F2 OA CONTROLLER,Actuator,1
 Non-Parent Node Connection,PSZ-3 NORTH F2 RELIEF AIR OUTLET,CONTROLLER:OUTDOORAIR,PSZ-3 NORTH F2 OA CONTROLLER,Actuator,1
 Non-Parent Node Connection,PSZ-3 NORTH F2 AIR LOOP INLET,CONTROLLER:OUTDOORAIR,PSZ-3 NORTH F2 OA CONTROLLER,Sensor,1
 Non-Parent Node Connection,PSZ-4 WEST F2 MIXED AIR OUTLET,CONTROLLER:OUTDOORAIR,PSZ-4 WEST F2 OA CONTROLLER,Sensor,1
 Non-Parent Node Connection,PSZ-4 WEST F2 OUTSIDE AIR INLET,CONTROLLER:OUTDOORAIR,PSZ-4 WEST F2 OA CONTROLLER,Actuator,1
 Non-Parent Node Connection,PSZ-4 WEST F2 RELIEF AIR OUTLET,CONTROLLER:OUTDOORAIR,PSZ-4 WEST F2 OA CONTROLLER,Actuator,1
 Non-Parent Node Connection,PSZ-4 WEST F2 AIR LOOP INLET,CONTROLLER:OUTDOORAIR,PSZ-4 WEST F2 OA CONTROLLER,Sensor,1
 Non-Parent Node Connection,PSZ-5 CORE F2 MIXED AIR OUTLET,CONTROLLER:OUTDOORAIR,PSZ-5 CORE F2 OA CONTROLLER,Sensor,1
 Non-Parent Node Connection,PSZ-5 CORE F2 OUTSIDE AIR INLET,CONTROLLER:OUTDOORAIR,PSZ-5 CORE F2 OA CONTROLLER,Actuator,1
 Non-Parent Node Connection,PSZ-5 CORE F2 RELIEF AIR OUTLET,CONTROLLER:OUTDOORAIR,PSZ-5 CORE F2 OA CONTROLLER,Actuator,1
 Non-Parent Node Connection,PSZ-5 CORE F2 AIR LOOP INLET,CONTROLLER:OUTDOORAIR,PSZ-5 CORE F2 OA CONTROLLER,Sensor,1
 Non-Parent Node Connection,PSZ-6 SOUTH F1 MIXED AIR OUTLET,CONTROLLER:OUTDOORAIR,PSZ-6 SOUTH F1 OA CONTROLLER,Sensor,1
 Non-Parent Node Connection,PSZ-6 SOUTH F1 OUTSIDE AIR INLET,CONTROLLER:OUTDOORAIR,PSZ-6 SOUTH F1 OA CONTROLLER,Actuator,1
 Non-Parent Node Connection,PSZ-6 SOUTH F1 RELIEF AIR OUTLET,CONTROLLER:OUTDOORAIR,PSZ-6 SOUTH F1 OA CONTROLLER,Actuator,1
 Non-Parent Node Connection,PSZ-6 SOUTH F1 AIR LOOP INLET,CONTROLLER:OUTDOORAIR,PSZ-6 SOUTH F1 OA CONTROLLER,Sensor,1
 Non-Parent Node Connection,PSZ-7 EAST F1 MIXED AIR OUTLET,CONTROLLER:OUTDOORAIR,PSZ-7 EAST F1 OA CONTROLLER,Sensor,1
 Non-Parent Node Connection,PSZ-7 EAST F1 OUTSIDE AIR INLET,CONTROLLER:OUTDOORAIR,PSZ-7 EAST F1 OA CONTROLLER,Actuator,1
 Non-Parent Node Connection,PSZ-7 EAST F1 RELIEF AIR OUTLET,CONTROLLER:OUTDOORAIR,PSZ-7 EAST F1 OA CONTROLLER,Actuator,1
 Non-Parent Node Connection,PSZ-7 EAST F1 AIR LOOP INLET,CONTROLLER:OUTDOORAIR,PSZ-7 EAST F1 OA CONTROLLER,Sensor,1
 Non-Parent Node Connection,PSZ-8 NORTH F1 MIXED AIR OUTLET,CONTROLLER:OUTDOORAIR,PSZ-8 NORTH F1 OA CONTROLLER,Sensor,1
 Non-Parent Node Connection,PSZ-8 NORTH F1 OUTSIDE AIR INLET,CONTROLLER:OUTDOORAIR,PSZ-8 NORTH F1 OA CONTROLLER,Actuator,1
 Non-Parent Node Connection,PSZ-8 NORTH F1 RELIEF AIR OUTLET,CONTROLLER:OUTDOORAIR,PSZ-8 NORTH F1 OA CONTROLLER,Actuator,1
 Non-Parent Node Connection,PSZ-8 NORTH F1 AIR LOOP INLET,CONTROLLER:OUTDOORAIR,PSZ-8 NORTH F1 OA CONTROLLER,Sensor,1
 Non-Parent Node Connection,PSZ-9 WEST F1 MIXED AIR OUTLET,CONTROLLER:OUTDOORAIR,PSZ-9 WEST F1 OA CONTROLLER,Sensor,1
 Non-Parent Node Connection,PSZ-9 WEST F1 OUTSIDE AIR INLET,CONTROLLER:OUTDOORAIR,PSZ-9 WEST F1 OA CONTROLLER,Actuator,1
 Non-Parent Node Connection,PSZ-9 WEST F1 RELIEF AIR OUTLET,CONTROLLER:OUTDOORAIR,PSZ-9 WEST F1 OA CONTROLLER,Actuator,1
 Non-Parent Node Connection,PSZ-9 WEST F1 AIR LOOP INLET,CONTROLLER:OUTDOORAIR,PSZ-9 WEST F1 OA CONTROLLER,Sensor,1
 Non-Parent Node Connection,PSZ-10 CORE F1 MIXED AIR OUTLET,CONTROLLER:OUTDOORAIR,PSZ-10 CORE F1 OA CONTROLLER,Sensor,1
 Non-Parent Node Connection,PSZ-10 CORE F1 OUTSIDE AIR INLET,CONTROLLER:OUTDOORAIR,PSZ-10 CORE F1 OA CONTROLLER,Actuator,1
 Non-Parent Node Connection,PSZ-10 CORE F1 RELIEF AIR OUTLET,CONTROLLER:OUTDOORAIR,PSZ-10 CORE F1 OA CONTROLLER,Actuator,1
 Non-Parent Node Connection,PSZ-10 CORE F1 AIR LOOP INLET,CONTROLLER:OUTDOORAIR,PSZ-10 CORE F1 OA CONTROLLER,Sensor,1
 Non-Parent Node Connection,PSZ-1 SOUTH F2 MIXED AIR OUTLET,COIL:HEATING:GAS,PSZ-1 SOUTH F2 HEATING COIL,Inlet,1
 Non-Parent Node Connection,PSZ-1 SOUTH F2 HEATING COIL OUTLET,COIL:HEATING:GAS,PSZ-1 SOUTH F2 HEATING COIL,Outlet,1
 Non-Parent Node Connection,PSZ-2 EAST F2 MIXED AIR OUTLET,COIL:HEATING:GAS,PSZ-2 EAST F2 HEATING COIL,Inlet,1
 Non-Parent Node Connection,PSZ-2 EAST F2 HEATING COIL OUTLET,COIL:HEATING:GAS,PSZ-2 EAST F2 HEATING COIL,Outlet,1
 Non-Parent Node Connection,PSZ-3 NORTH F2 MIXED AIR OUTLET,COIL:HEATING:GAS,PSZ-3 NORTH F2 HEATING COIL,Inlet,1
 Non-Parent Node Connection,PSZ-3 NORTH F2 HEATING COIL OUTLET,COIL:HEATING:GAS,PSZ-3 NORTH F2 HEATING COIL,Outlet,1
 Non-Parent Node Connection,PSZ-4 WEST F2 MIXED AIR OUTLET,COIL:HEATING:GAS,PSZ-4 WEST F2 HEATING COIL,Inlet,1
 Non-Parent Node Connection,PSZ-4 WEST F2 HEATING COIL OUTLET,COIL:HEATING:GAS,PSZ-4 WEST F2 HEATING COIL,Outlet,1
 Non-Parent Node Connection,PSZ-5 CORE F2 MIXED AIR OUTLET,COIL:HEATING:GAS,PSZ-5 CORE F2 HEATING COIL,Inlet,1
 Non-Parent Node Connection,PSZ-5 CORE F2 HEATING COIL OUTLET,COIL:HEATING:GAS,PSZ-5 CORE F2 HEATING COIL,Outlet,1
 Non-Parent Node Connection,PSZ-6 SOUTH F1 MIXED AIR OUTLET,COIL:HEATING:GAS,PSZ-6 SOUTH F1 HEATING COIL,Inlet,1
 Non-Parent Node Connection,PSZ-6 SOUTH F1 HEATING COIL OUTLET,COIL:HEATING:GAS,PSZ-6 SOUTH F1 HEATING COIL,Outlet,1
 Non-Parent Node Connection,PSZ-7 EAST F1 MIXED AIR OUTLET,COIL:HEATING:GAS,PSZ-7 EAST F1 HEATING COIL,Inlet,1
 Non-Parent Node Connection,PSZ-7 EAST F1 HEATING COIL OUTLET,COIL:HEATING:GAS,PSZ-7 EAST F1 HEATING COIL,Outlet,1
 Non-Parent Node Connection,PSZ-8 NORTH F1 MIXED AIR OUTLET,COIL:HEATING:GAS,PSZ-8 NORTH F1 HEATING COIL,Inlet,1
 Non-Parent Node Connection,PSZ-8 NORTH F1 HEATING COIL OUTLET,COIL:HEATING:GAS,PSZ-8 NORTH F1 HEATING COIL,Outlet,1
 Non-Parent Node Connection,PSZ-9 WEST F1 MIXED AIR OUTLET,COIL:HEATING:GAS,PSZ-9 WEST F1 HEATING COIL,Inlet,1
 Non-Parent Node Connection,PSZ-9 WEST F1 HEATING COIL OUTLET,COIL:HEATING:GAS,PSZ-9 WEST F1 HEATING COIL,Outlet,1
 Non-Parent Node Connection,PSZ-10 CORE F1 MIXED AIR OUTLET,COIL:HEATING:GAS,PSZ-10 CORE F1 HEATING COIL,Inlet,1
 Non-Parent Node Connection,PSZ-10 CORE F1 HEATING COIL OUTLET,COIL:HEATING:GAS,PSZ-10 CORE F1 HEATING COIL,Outlet,1
 Non-Parent Node Connection,PSZ-1 SOUTH F2 HEATING COIL OUTLET,COIL:COOLING:DX:SINGLESPEED,PSZ-1 SOUTH F2 COOLING COIL,Inlet,1
 Non-Parent Node Connection,PSZ-1 SOUTH F2 COOLING COIL OUTLET,COIL:COOLING:DX:SINGLESPEED,PSZ-1 SOUTH F2 COOLING COIL,Outlet,1
 Non-Parent Node Connection,PSZ-1 SOUTH F2 COOLING COIL CONDENSER INLET,COIL:COOLING:DX:SINGLESPEED,PSZ-1 SOUTH F2 COOLING COIL,OutsideAirReference,1
 Non-Parent Node Connection,PSZ-2 EAST F2 HEATING COIL OUTLET,COIL:COOLING:DX:SINGLESPEED,PSZ-2 EAST F2 COOLING COIL,Inlet,1
 Non-Parent Node Connection,PSZ-2 EAST F2 COOLING COIL OUTLET,COIL:COOLING:DX:SINGLESPEED,PSZ-2 EAST F2 COOLING COIL,Outlet,1
 Non-Parent Node Connection,PSZ-2 EAST F2 COOLING COIL CONDENSER INLET,COIL:COOLING:DX:SINGLESPEED,PSZ-2 EAST F2 COOLING COIL,OutsideAirReference,1
 Non-Parent Node Connection,PSZ-3 NORTH F2 HEATING COIL OUTLET,COIL:COOLING:DX:SINGLESPEED,PSZ-3 NORTH F2 COOLING COIL,Inlet,1
 Non-Parent Node Connection,PSZ-3 NORTH F2 COOLING COIL OUTLET,COIL:COOLING:DX:SINGLESPEED,PSZ-3 NORTH F2 COOLING COIL,Outlet,1
 Non-Parent Node Connection,PSZ-3 NORTH F2 COOLING COIL CONDENSER INLET,COIL:COOLING:DX:SINGLESPEED,PSZ-3 NORTH F2 COOLING COIL,OutsideAirReference,1
 Non-Parent Node Connection,PSZ-4 WEST F2 HEATING COIL OUTLET,COIL:COOLING:DX:SINGLESPEED,PSZ-4 WEST F2 COOLING COIL,Inlet,1
 Non-Parent Node Connection,PSZ-4 WEST F2 COOLING COIL OUTLET,COIL:COOLING:DX:SINGLESPEED,PSZ-4 WEST F2 COOLING COIL,Outlet,1
 Non-Parent Node Connection,PSZ-4 WEST F2 COOLING COIL CONDENSER INLET,COIL:COOLING:DX:SINGLESPEED,PSZ-4 WEST F2 COOLING COIL,OutsideAirReference,1
 Non-Parent Node Connection,PSZ-5 CORE F2 HEATING COIL OUTLET,COIL:COOLING:DX:SINGLESPEED,PSZ-5 CORE F2 COOLING COIL,Inlet,1
 Non-Parent Node Connection,PSZ-5 CORE F2 COOLING COIL OUTLET,COIL:COOLING:DX:SINGLESPEED,PSZ-5 CORE F2 COOLING COIL,Outlet,1
 Non-Parent Node Connection,PSZ-5 CORE F2 COOLING COIL CONDENSER INLET,COIL:COOLING:DX:SINGLESPEED,PSZ-5 CORE F2 COOLING COIL,OutsideAirReference,1
 Non-Parent Node Connection,PSZ-6 SOUTH F1 HEATING COIL OUTLET,COIL:COOLING:DX:SINGLESPEED,PSZ-6 SOUTH F1 COOLING COIL,Inlet,1
 Non-Parent Node Connection,PSZ-6 SOUTH F1 COOLING COIL OUTLET,COIL:COOLING:DX:SINGLESPEED,PSZ-6 SOUTH F1 COOLING COIL,Outlet,1
 Non-Parent Node Connection,PSZ-6 SOUTH F1 COOLING COIL CONDENSER INLET,COIL:COOLING:DX:SINGLESPEED,PSZ-6 SOUTH F1 COOLING COIL,OutsideAirReference,1
 Non-Parent Node Connection,PSZ-7 EAST F1 HEATING COIL OUTLET,COIL:COOLING:DX:SINGLESPEED,PSZ-7 EAST F1 COOLING COIL,Inlet,1
 Non-Parent Node Connection,PSZ-7 EAST F1 COOLING COIL OUTLET,COIL:COOLING:DX:SINGLESPEED,PSZ-7 EAST F1 COOLING COIL,Outlet,1
 Non-Parent Node Connection,PSZ-7 EAST F1 COOLING COIL CONDENSER INLET,COIL:COOLING:DX:SINGLESPEED,PSZ-7 EAST F1 COOLING COIL,OutsideAirReference,1
 Non-Parent Node Connection,PSZ-8 NORTH F1 HEATING COIL OUTLET,COIL:COOLING:DX:SINGLESPEED,PSZ-8 NORTH F1 COOLING COIL,Inlet,1
 Non-Parent Node Connection,PSZ-8 NORTH F1 COOLING COIL OUTLET,COIL:COOLING:DX:SINGLESPEED,PSZ-8 NORTH F1 COOLING COIL,Outlet,1
 Non-Parent Node Connection,PSZ-8 NORTH F1 COOLING COIL CONDENSER INLET,COIL:COOLING:DX:SINGLESPEED,PSZ-8 NORTH F1 COOLING COIL,OutsideAirReference,1
 Non-Parent Node Connection,PSZ-9 WEST F1 HEATING COIL OUTLET,COIL:COOLING:DX:SINGLESPEED,PSZ-9 WEST F1 COOLING COIL,Inlet,1
 Non-Parent Node Connection,PSZ-9 WEST F1 COOLING COIL OUTLET,COIL:COOLING:DX:SINGLESPEED,PSZ-9 WEST F1 COOLING COIL,Outlet,1
 Non-Parent Node Connection,PSZ-9 WEST F1 COOLING COIL CONDENSER INLET,COIL:COOLING:DX:SINGLESPEED,PSZ-9 WEST F1 COOLING COIL,OutsideAirReference,1
 Non-Parent Node Connection,PSZ-10 CORE F1 HEATING COIL OUTLET,COIL:COOLING:DX:SINGLESPEED,PSZ-10 CORE F1 COOLING COIL,Inlet,1
 Non-Parent Node Connection,PSZ-10 CORE F1 COOLING COIL OUTLET,COIL:COOLING:DX:SINGLESPEED,PSZ-10 CORE F1 COOLING COIL,Outlet,1
 Non-Parent Node Connection,PSZ-10 CORE F1 COOLING COIL CONDENSER INLET,COIL:COOLING:DX:SINGLESPEED,PSZ-10 CORE F1 COOLING COIL,OutsideAirReference,1
 Non-Parent Node Connection,SWHSYS1 SUPPLY EQUIP BYPASS INLET NODE,PIPE:ADIABATIC,SWHSYS1 SUPPLY EQUIPMENT BYPASS PIPE,Inlet,1
 Non-Parent Node Connection,SWHSYS1 SUPPLY EQUIP BYPASS OUTLET NODE,PIPE:ADIABATIC,SWHSYS1 SUPPLY EQUIPMENT BYPASS PIPE,Outlet,1
 Non-Parent Node Connection,SWHSYS1 SUPPLY MIXER-SWHSYS1 SUPPLY OUTLET PIPE,PIPE:ADIABATIC,SWHSYS1 SUPPLY OUTLET PIPE,Inlet,1
 Non-Parent Node Connection,SWHSYS1 SUPPLY OUTLET NODE,PIPE:ADIABATIC,SWHSYS1 SUPPLY OUTLET PIPE,Outlet,1
 Non-Parent Node Connection,SWHSYS1 DEMAND INLET NODE,PIPE:ADIABATIC,SWHSYS1 DEMAND INLET PIPE,Inlet,1
 Non-Parent Node Connection,SWHSYS1 DEMAND INLET PIPE-SWHSYS1 DEMAND MIXER,PIPE:ADIABATIC,SWHSYS1 DEMAND INLET PIPE,Outlet,1
 Non-Parent Node Connection,SWHSYS1 DEMAND BYPASS PIPE INLET NODE,PIPE:ADIABATIC,SWHSYS1 DEMAND BYPASS PIPE,Inlet,1
 Non-Parent Node Connection,SWHSYS1 DEMAND BYPASS PIPE OUTLET NODE,PIPE:ADIABATIC,SWHSYS1 DEMAND BYPASS PIPE,Outlet,1
 Non-Parent Node Connection,SWHSYS1 DEMAND MIXER-SWHSYS1 DEMAND OUTLET PIPE,PIPE:ADIABATIC,SWHSYS1 DEMAND OUTLET PIPE,Inlet,1
 Non-Parent Node Connection,SWHSYS1 DEMAND OUTLET NODE,PIPE:ADIABATIC,SWHSYS1 DEMAND OUTLET PIPE,Outlet,1
 Non-Parent Node Connection,SWHSYS1 SUPPLY INLET NODE,PUMP:VARIABLESPEED,SWHSYS1 PUMP,Inlet,1
 Non-Parent Node Connection,SWHSYS1 PUMP-SWHSYS1 WATER HEATERNODEVIACONNECTOR,PUMP:VARIABLESPEED,SWHSYS1 PUMP,Outlet,1
